* NGSPICE file created from spi_top.ext - technology: scmos

* Black-box entry subcircuit for FILL abstract view
.subckt FILL gnd vdd
.ends

* Black-box entry subcircuit for AND2X2 abstract view
.subckt AND2X2 A B gnd Y vdd
.ends

* Black-box entry subcircuit for OAI21X1 abstract view
.subckt OAI21X1 A B C gnd Y vdd
.ends

* Black-box entry subcircuit for MUX2X1 abstract view
.subckt MUX2X1 A B S gnd Y vdd
.ends

* Black-box entry subcircuit for DFFSR abstract view
.subckt DFFSR Q CLK R S D gnd vdd
.ends

* Black-box entry subcircuit for NAND2X1 abstract view
.subckt NAND2X1 A B gnd Y vdd
.ends

* Black-box entry subcircuit for AOI22X1 abstract view
.subckt AOI22X1 A B C D gnd Y vdd
.ends

* Black-box entry subcircuit for AOI21X1 abstract view
.subckt AOI21X1 A B C gnd Y vdd
.ends

* Black-box entry subcircuit for NAND3X1 abstract view
.subckt NAND3X1 A B C gnd Y vdd
.ends

* Black-box entry subcircuit for OAI22X1 abstract view
.subckt OAI22X1 A B C D gnd Y vdd
.ends

* Black-box entry subcircuit for INVX2 abstract view
.subckt INVX2 A gnd Y vdd
.ends

* Black-box entry subcircuit for BUFX4 abstract view
.subckt BUFX4 A gnd Y vdd
.ends

* Black-box entry subcircuit for NOR2X1 abstract view
.subckt NOR2X1 A B gnd Y vdd
.ends

* Black-box entry subcircuit for OR2X2 abstract view
.subckt OR2X2 A B gnd Y vdd
.ends

* Black-box entry subcircuit for XNOR2X1 abstract view
.subckt XNOR2X1 A B gnd Y vdd
.ends

* Black-box entry subcircuit for INVX8 abstract view
.subckt INVX8 A gnd Y vdd
.ends

* Black-box entry subcircuit for INVX1 abstract view
.subckt INVX1 A gnd Y vdd
.ends

* Black-box entry subcircuit for NOR3X1 abstract view
.subckt NOR3X1 A B C gnd Y vdd
.ends

* Black-box entry subcircuit for CLKBUF1 abstract view
.subckt CLKBUF1 A gnd Y vdd
.ends

* Black-box entry subcircuit for XOR2X1 abstract view
.subckt XOR2X1 A B gnd Y vdd
.ends

* Black-box entry subcircuit for BUFX2 abstract view
.subckt BUFX2 A gnd Y vdd
.ends

* Black-box entry subcircuit for INVX4 abstract view
.subckt INVX4 A gnd Y vdd
.ends

.subckt spi_top vdd gnd wb_clk_i wb_rst_i wb_adr_i[0] wb_adr_i[1] wb_adr_i[2] wb_adr_i[3]
+ wb_adr_i[4] wb_dat_i[0] wb_dat_i[1] wb_dat_i[2] wb_dat_i[3] wb_dat_i[4] wb_dat_i[5]
+ wb_dat_i[6] wb_dat_i[7] wb_dat_i[8] wb_dat_i[9] wb_dat_i[10] wb_dat_i[11] wb_dat_i[12]
+ wb_dat_i[13] wb_dat_i[14] wb_dat_i[15] wb_dat_i[16] wb_dat_i[17] wb_dat_i[18] wb_dat_i[19]
+ wb_dat_i[20] wb_dat_i[21] wb_dat_i[22] wb_dat_i[23] wb_dat_i[24] wb_dat_i[25] wb_dat_i[26]
+ wb_dat_i[27] wb_dat_i[28] wb_dat_i[29] wb_dat_i[30] wb_dat_i[31] wb_sel_i[0] wb_sel_i[1]
+ wb_sel_i[2] wb_sel_i[3] wb_we_i wb_stb_i wb_cyc_i miso_pad_i wb_dat_o[0] wb_dat_o[1]
+ wb_dat_o[2] wb_dat_o[3] wb_dat_o[4] wb_dat_o[5] wb_dat_o[6] wb_dat_o[7] wb_dat_o[8]
+ wb_dat_o[9] wb_dat_o[10] wb_dat_o[11] wb_dat_o[12] wb_dat_o[13] wb_dat_o[14] wb_dat_o[15]
+ wb_dat_o[16] wb_dat_o[17] wb_dat_o[18] wb_dat_o[19] wb_dat_o[20] wb_dat_o[21] wb_dat_o[22]
+ wb_dat_o[23] wb_dat_o[24] wb_dat_o[25] wb_dat_o[26] wb_dat_o[27] wb_dat_o[28] wb_dat_o[29]
+ wb_dat_o[30] wb_dat_o[31] wb_ack_o wb_err_o wb_int_o ss_pad_o[0] ss_pad_o[1] ss_pad_o[2]
+ ss_pad_o[3] ss_pad_o[4] ss_pad_o[5] ss_pad_o[6] ss_pad_o[7] ss_pad_o[8] ss_pad_o[9]
+ ss_pad_o[10] ss_pad_o[11] ss_pad_o[12] ss_pad_o[13] ss_pad_o[14] ss_pad_o[15] ss_pad_o[16]
+ ss_pad_o[17] ss_pad_o[18] ss_pad_o[19] ss_pad_o[20] ss_pad_o[21] ss_pad_o[22] ss_pad_o[23]
+ ss_pad_o[24] ss_pad_o[25] ss_pad_o[26] ss_pad_o[27] ss_pad_o[28] ss_pad_o[29] ss_pad_o[30]
+ ss_pad_o[31] sclk_pad_o mosi_pad_o
XFILL_9_6_0 gnd vdd FILL
XFILL_17_5_0 gnd vdd FILL
XAND2X2_5 AND2X2_5/A AND2X2_5/B gnd AND2X2_5/Y vdd AND2X2
XOAI21X1_360 BUFX4_156/Y AOI21X1_90/B AOI21X1_90/Y gnd AOI22X1_41/C vdd OAI21X1
XOAI21X1_382 BUFX4_156/Y OAI21X1_382/B OAI21X1_382/C gnd AOI22X1_49/C vdd OAI21X1
XOAI21X1_371 INVX2_60/Y MUX2X1_29/S OAI21X1_613/C gnd OAI21X1_371/Y vdd OAI21X1
XOAI21X1_393 BUFX4_156/Y OAI21X1_393/B OAI21X1_393/C gnd AOI22X1_53/C vdd OAI21X1
XFILL_23_3_0 gnd vdd FILL
XMUX2X1_28 MUX2X1_38/A MUX2X1_28/B MUX2X1_28/S gnd MUX2X1_28/Y vdd MUX2X1
XMUX2X1_39 wb_dat_i[3] INVX1_95/A MUX2X1_47/S gnd MUX2X1_39/Y vdd MUX2X1
XMUX2X1_17 wb_dat_i[30] MUX2X1_17/B BUFX4_90/Y gnd MUX2X1_17/Y vdd MUX2X1
XFILL_6_4_0 gnd vdd FILL
XFILL_14_3_0 gnd vdd FILL
XOAI21X1_190 INVX8_10/A OR2X2_1/A OR2X2_1/B gnd OAI21X1_191/C vdd OAI21X1
XDFFSR_9 INVX2_2/A DFFSR_9/CLK DFFSR_9/R vdd DFFSR_9/D gnd vdd DFFSR
XNAND2X1_21 BUFX4_19/Y wb_dat_i[12] gnd OAI21X1_71/C vdd NAND2X1
XNAND2X1_43 AOI21X1_9/Y NOR2X1_10/Y gnd DFFSR_73/D vdd NAND2X1
XNAND2X1_10 MUX2X1_29/S wb_dat_i[17] gnd OAI21X1_19/C vdd NAND2X1
XNAND2X1_32 BUFX4_111/Y wb_dat_i[7] gnd OAI21X1_91/C vdd NAND2X1
XNAND2X1_76 INVX8_9/A OR2X2_1/B gnd OAI22X1_49/B vdd NAND2X1
XNAND2X1_87 OR2X2_7/B NOR2X1_54/A gnd NOR2X1_49/B vdd NAND2X1
XNAND2X1_98 BUFX4_181/Y INVX1_91/Y gnd NAND2X1_98/Y vdd NAND2X1
XNAND2X1_65 MUX2X1_17/B BUFX4_113/Y gnd NAND3X1_86/A vdd NAND2X1
XNAND2X1_54 INVX1_94/A BUFX4_113/Y gnd NAND3X1_75/A vdd NAND2X1
XAOI22X1_41 MUX2X1_8/B BUFX4_250/Y AOI22X1_41/C AOI22X1_41/D gnd DFFSR_237/D vdd AOI22X1
XAOI21X1_214 INVX2_71/Y OAI21X1_686/B BUFX4_257/Y gnd OAI21X1_686/C vdd AOI21X1
XAOI22X1_30 BUFX4_98/Y INVX1_7/A INVX2_103/A BUFX4_69/Y gnd NAND3X1_86/B vdd AOI22X1
XAOI21X1_203 INVX8_23/A OAI21X1_580/Y BUFX4_7/Y gnd AOI22X1_81/D vdd AOI21X1
XAOI22X1_52 MUX2X1_8/A BUFX4_250/Y AOI22X1_52/C AOI22X1_52/D gnd DFFSR_221/D vdd AOI22X1
XAOI22X1_85 INVX2_75/Y BUFX4_145/Y AOI22X1_85/C AOI22X1_85/D gnd DFFSR_203/D vdd AOI22X1
XAOI22X1_63 INVX2_138/Y BUFX4_143/Y AOI22X1_63/C AOI22X1_63/D gnd DFFSR_200/D vdd
+ AOI22X1
XAOI22X1_74 INVX2_107/Y BUFX4_7/Y AOI22X1_74/C AOI22X1_74/D gnd DFFSR_162/D vdd AOI22X1
XNAND3X1_229 BUFX4_207/Y NAND3X1_229/B NAND3X1_229/C gnd AOI21X1_55/A vdd NAND3X1
XNAND3X1_207 MUX2X1_42/B BUFX4_46/Y BUFX4_139/Y gnd NAND3X1_209/B vdd NAND3X1
XNAND3X1_218 INVX1_118/Y BUFX4_47/Y BUFX4_141/Y gnd NAND3X1_220/B vdd NAND3X1
XOAI22X1_3 INVX8_5/A INVX1_20/Y INVX8_2/A INVX2_23/Y gnd OAI22X1_3/Y vdd OAI22X1
XFILL_30_6_1 gnd vdd FILL
XDFFSR_205 INVX2_82/A DFFSR_70/CLK BUFX4_15/Y vdd DFFSR_205/D gnd vdd DFFSR
XDFFSR_216 INVX1_32/A CLKBUF1_52/Y BUFX4_16/Y vdd DFFSR_216/D gnd vdd DFFSR
XDFFSR_249 INVX4_7/A CLKBUF1_37/Y BUFX4_15/Y vdd DFFSR_249/D gnd vdd DFFSR
XDFFSR_227 INVX2_72/A CLKBUF1_15/Y BUFX4_18/Y vdd DFFSR_227/D gnd vdd DFFSR
XDFFSR_238 INVX2_115/A CLKBUF1_24/Y BUFX4_10/Y vdd DFFSR_238/D gnd vdd DFFSR
XFILL_21_6_1 gnd vdd FILL
XFILL_20_1_0 gnd vdd FILL
XINVX2_45 INVX2_45/A gnd INVX2_45/Y vdd INVX2
XINVX2_34 INVX2_34/A gnd INVX2_34/Y vdd INVX2
XINVX2_56 INVX2_56/A gnd MUX2X1_4/A vdd INVX2
XINVX2_23 OR2X2_8/B gnd INVX2_23/Y vdd INVX2
XINVX2_12 DFFSR_3/Q gnd INVX2_12/Y vdd INVX2
XINVX2_78 INVX2_78/A gnd INVX2_78/Y vdd INVX2
XINVX2_67 INVX2_67/A gnd INVX2_67/Y vdd INVX2
XFILL_29_7_1 gnd vdd FILL
XFILL_28_2_0 gnd vdd FILL
XINVX2_89 INVX2_89/A gnd INVX2_89/Y vdd INVX2
XFILL_3_2_0 gnd vdd FILL
XFILL_4_7_1 gnd vdd FILL
XOAI21X1_19 INVX1_10/Y BUFX4_187/Y OAI21X1_19/C gnd OAI21X1_19/Y vdd OAI21X1
XFILL_11_1_0 gnd vdd FILL
XFILL_12_6_1 gnd vdd FILL
XFILL_19_2_0 gnd vdd FILL
XNAND2X1_239 BUFX4_6/Y OAI21X1_644/Y gnd OAI21X1_646/C vdd NAND2X1
XNAND2X1_217 INVX4_12/A NOR2X1_195/Y gnd OAI21X1_558/B vdd NAND2X1
XNAND2X1_206 INVX8_17/A INVX1_146/Y gnd OAI21X1_446/B vdd NAND2X1
XNAND2X1_228 BUFX4_7/Y OAI21X1_613/Y gnd OAI21X1_616/C vdd NAND2X1
XBUFX4_190 wb_sel_i[2] gnd BUFX4_190/Y vdd BUFX4
XNOR2X1_261 NOR2X1_261/A NOR2X1_261/B gnd NOR2X1_261/Y vdd NOR2X1
XNOR2X1_250 BUFX4_253/Y OR2X2_13/A gnd NOR2X1_250/Y vdd NOR2X1
XOAI21X1_701 BUFX4_124/Y INVX8_20/Y MUX2X1_48/Y gnd OAI21X1_702/C vdd OAI21X1
XBUFX4_85 BUFX4_85/A gnd MUX2X1_6/S vdd BUFX4
XBUFX4_63 BUFX4_66/A gnd BUFX4_63/Y vdd BUFX4
XBUFX4_41 BUFX4_45/A gnd BUFX4_41/Y vdd BUFX4
XBUFX4_52 INVX8_15/Y gnd BUFX4_52/Y vdd BUFX4
XBUFX4_96 INVX8_1/Y gnd BUFX4_96/Y vdd BUFX4
XBUFX4_30 INVX8_3/Y gnd BUFX4_30/Y vdd BUFX4
XBUFX4_74 BUFX4_76/A gnd BUFX4_74/Y vdd BUFX4
XOR2X2_4 OR2X2_4/A OR2X2_4/B gnd OR2X2_4/Y vdd OR2X2
XOR2X2_11 OR2X2_11/A OR2X2_13/B gnd OR2X2_11/Y vdd OR2X2
XXNOR2X1_6 OR2X2_4/Y INVX2_50/Y gnd OR2X2_6/A vdd XNOR2X1
XFILL_26_5_1 gnd vdd FILL
XFILL_25_0_0 gnd vdd FILL
XFILL_1_5_1 gnd vdd FILL
XFILL_0_0_0 gnd vdd FILL
XINVX8_11 wb_rst_i gnd INVX8_11/Y vdd INVX8
XOAI21X1_553 MUX2X1_15/A BUFX4_24/Y OAI21X1_553/C gnd OAI21X1_554/B vdd OAI21X1
XINVX8_22 INVX8_22/A gnd INVX8_22/Y vdd INVX8
XOAI21X1_564 INVX2_143/Y BUFX4_20/Y OAI21X1_644/C gnd OAI21X1_565/B vdd OAI21X1
XOAI21X1_520 INVX2_116/Y BUFX4_87/Y OAI21X1_520/C gnd OAI21X1_520/Y vdd OAI21X1
XOAI21X1_542 NOR2X1_204/Y INVX2_93/Y BUFX4_151/Y gnd OAI21X1_542/Y vdd OAI21X1
XOAI21X1_531 INVX2_98/Y BUFX4_187/Y OAI21X1_605/C gnd OAI21X1_532/B vdd OAI21X1
XINVX1_6 INVX1_6/A gnd INVX1_6/Y vdd INVX1
XOAI21X1_575 INVX2_125/Y BUFX4_106/Y OAI21X1_575/C gnd OAI21X1_575/Y vdd OAI21X1
XOAI21X1_597 INVX4_10/A INVX8_22/Y INVX1_153/A gnd NOR2X1_235/B vdd OAI21X1
XOAI21X1_586 BUFX4_163/Y MUX2X1_19/Y OAI21X1_586/C gnd DFFSR_145/D vdd OAI21X1
XFILL_9_6_1 gnd vdd FILL
XFILL_8_1_0 gnd vdd FILL
XFILL_17_5_1 gnd vdd FILL
XFILL_16_0_0 gnd vdd FILL
XAND2X2_6 AND2X2_6/A AND2X2_6/B gnd AND2X2_6/Y vdd AND2X2
XOAI21X1_361 MUX2X1_8/B BUFX4_87/Y OAI21X1_522/C gnd AOI21X1_91/B vdd OAI21X1
XOAI21X1_383 MUX2X1_9/A BUFX4_20/Y OAI21X1_630/C gnd OAI21X1_383/Y vdd OAI21X1
XOAI21X1_394 INVX2_142/Y BUFX4_22/Y OAI21X1_644/C gnd OAI21X1_394/Y vdd OAI21X1
XOAI21X1_372 INVX2_121/Y BUFX4_188/Y OAI21X1_617/C gnd AND2X2_14/A vdd OAI21X1
XOAI21X1_350 BUFX4_155/Y AOI21X1_80/B AOI21X1_80/Y gnd AOI22X1_36/C vdd OAI21X1
XFILL_23_3_1 gnd vdd FILL
XMUX2X1_29 wb_dat_i[22] MUX2X1_29/B MUX2X1_29/S gnd MUX2X1_29/Y vdd MUX2X1
XMUX2X1_18 MUX2X1_42/A MUX2X1_18/B MUX2X1_18/S gnd MUX2X1_18/Y vdd MUX2X1
XFILL_6_4_1 gnd vdd FILL
XFILL_14_3_1 gnd vdd FILL
XOAI21X1_191 INVX8_10/A OR2X2_3/Y OAI21X1_191/C gnd DFFSR_99/D vdd OAI21X1
XOAI21X1_180 XNOR2X1_2/Y NOR2X1_46/B OAI21X1_180/C gnd DFFSR_109/D vdd OAI21X1
XAOI22X1_1 INVX8_6/Y NOR2X1_96/A NOR2X1_98/A INVX8_7/Y gnd AOI22X1_1/Y vdd AOI22X1
XNAND2X1_77 AND2X2_4/Y AND2X2_5/Y gnd NAND2X1_77/Y vdd NAND2X1
XNAND2X1_33 INVX1_17/A OAI22X1_47/C gnd OAI21X1_76/B vdd NAND2X1
XNAND2X1_44 NAND2X1_44/A NOR2X1_11/Y gnd DFFSR_74/D vdd NAND2X1
XNAND2X1_22 BUFX4_21/Y wb_dat_i[13] gnd OAI21X1_73/C vdd NAND2X1
XNAND2X1_55 INVX1_119/A BUFX4_116/Y gnd NAND3X1_76/A vdd NAND2X1
XNAND2X1_11 BUFX4_188/Y wb_dat_i[18] gnd OAI21X1_21/C vdd NAND2X1
XNAND2X1_66 INVX1_96/A BUFX4_113/Y gnd NAND3X1_87/A vdd NAND2X1
XFILL_28_1 gnd vdd FILL
XNAND2X1_88 INVX2_48/Y INVX1_88/A gnd OR2X2_4/A vdd NAND2X1
XNAND2X1_99 MUX2X1_3/Y BUFX4_63/Y gnd NAND2X1_99/Y vdd NAND2X1
XAOI22X1_20 BUFX4_99/Y INVX1_2/A INVX2_84/A BUFX4_68/Y gnd NAND3X1_81/B vdd AOI22X1
XAOI22X1_53 INVX2_142/Y BUFX4_247/Y AOI22X1_53/C AOI22X1_53/D gnd DFFSR_220/D vdd
+ AOI22X1
XAOI21X1_215 BUFX4_257/Y OAI21X1_687/Y BUFX4_4/Y gnd AOI22X1_86/D vdd AOI21X1
XAOI21X1_204 NOR2X1_244/Y BUFX4_153/Y OAI21X1_664/Y gnd OAI22X1_118/C vdd AOI21X1
XAOI22X1_75 INVX2_119/Y BUFX4_4/Y AOI22X1_75/C AOI22X1_75/D gnd DFFSR_158/D vdd AOI22X1
XAOI22X1_64 INVX2_123/Y BUFX4_143/Y AOI22X1_64/C AOI22X1_64/D gnd DFFSR_198/D vdd
+ AOI22X1
XAOI22X1_31 INVX8_6/Y INVX2_69/A INVX2_67/A INVX8_7/Y gnd NAND3X1_87/C vdd AOI22X1
XAOI22X1_42 INVX2_139/Y BUFX4_246/Y AOI22X1_42/C AOI22X1_42/D gnd DFFSR_236/D vdd
+ AOI22X1
XAOI22X1_86 INVX2_71/Y BUFX4_4/Y AOI22X1_86/C AOI22X1_86/D gnd DFFSR_163/D vdd AOI22X1
XNAND3X1_208 INVX2_126/Y BUFX4_72/Y BUFX4_60/Y gnd NAND3X1_209/C vdd NAND3X1
XNAND3X1_219 INVX2_135/Y BUFX4_71/Y BUFX4_61/Y gnd NAND3X1_220/C vdd NAND3X1
XOAI22X1_4 OAI22X1_4/A INVX1_22/Y INVX1_21/Y INVX8_7/A gnd NOR2X1_3/B vdd OAI22X1
XDFFSR_239 INVX2_57/A CLKBUF1_60/Y BUFX4_8/Y vdd DFFSR_239/D gnd vdd DFFSR
XDFFSR_217 INVX1_35/A CLKBUF1_45/Y BUFX4_17/Y vdd DFFSR_217/D gnd vdd DFFSR
XDFFSR_206 INVX2_117/A CLKBUF1_29/Y BUFX4_17/Y vdd DFFSR_206/D gnd vdd DFFSR
XDFFSR_228 INVX2_145/A CLKBUF1_10/Y BUFX4_9/Y vdd DFFSR_228/D gnd vdd DFFSR
XFILL_20_1_1 gnd vdd FILL
XINVX2_46 INVX2_46/A gnd INVX2_46/Y vdd INVX2
XINVX2_79 INVX2_79/A gnd MUX2X1_6/A vdd INVX2
XINVX2_35 INVX2_35/A gnd INVX2_35/Y vdd INVX2
XINVX2_57 INVX2_57/A gnd MUX2X1_4/B vdd INVX2
XINVX2_24 INVX4_3/A gnd INVX2_24/Y vdd INVX2
XINVX2_13 DFFSR_4/Q gnd INVX2_13/Y vdd INVX2
XINVX2_68 INVX2_68/A gnd INVX2_68/Y vdd INVX2
XFILL_28_2_1 gnd vdd FILL
XFILL_3_2_1 gnd vdd FILL
XFILL_11_1_1 gnd vdd FILL
XFILL_19_2_1 gnd vdd FILL
XNAND2X1_207 INVX8_17/A INVX1_147/Y gnd OAI21X1_458/B vdd NAND2X1
XNAND2X1_218 INVX4_12/A AND2X2_18/A gnd OAI21X1_566/B vdd NAND2X1
XNAND2X1_229 NOR2X1_224/Y MUX2X1_48/A gnd OAI21X1_615/C vdd NAND2X1
XBUFX4_180 INVX8_12/Y gnd BUFX4_180/Y vdd BUFX4
XBUFX4_191 NAND3X1_1/Y gnd OAI22X1_5/A vdd BUFX4
XNOR2X1_251 INVX8_25/Y NOR2X1_251/B gnd NOR2X1_251/Y vdd NOR2X1
XNOR2X1_240 INVX8_25/Y NOR2X1_240/B gnd MUX2X1_40/S vdd NOR2X1
XNOR2X1_262 NOR2X1_51/A INVX4_10/Y gnd NOR2X1_262/Y vdd NOR2X1
XOAI21X1_702 BUFX4_163/Y MUX2X1_47/Y OAI21X1_702/C gnd DFFSR_123/D vdd OAI21X1
XBUFX4_20 wb_sel_i[1] gnd BUFX4_20/Y vdd BUFX4
XBUFX4_86 wb_sel_i[3] gnd BUFX4_86/Y vdd BUFX4
XBUFX4_75 BUFX4_76/A gnd BUFX4_75/Y vdd BUFX4
XBUFX4_42 BUFX4_45/A gnd BUFX4_42/Y vdd BUFX4
XBUFX4_97 INVX8_1/Y gnd BUFX4_97/Y vdd BUFX4
XBUFX4_53 INVX8_15/Y gnd BUFX4_53/Y vdd BUFX4
XBUFX4_64 BUFX4_66/A gnd BUFX4_64/Y vdd BUFX4
XBUFX4_31 INVX8_3/Y gnd BUFX4_31/Y vdd BUFX4
XFILL_10_1 gnd vdd FILL
XOR2X2_5 OR2X2_5/A OR2X2_5/B gnd OR2X2_5/Y vdd OR2X2
XOR2X2_12 OR2X2_13/B OR2X2_12/B gnd OR2X2_12/Y vdd OR2X2
XXNOR2X1_7 XOR2X1_5/A XOR2X1_5/B gnd XNOR2X1_7/Y vdd XNOR2X1
XFILL_25_0_1 gnd vdd FILL
XINVX8_12 OR2X2_9/B gnd INVX8_12/Y vdd INVX8
XFILL_0_0_1 gnd vdd FILL
XINVX8_23 INVX8_23/A gnd INVX8_23/Y vdd INVX8
XOAI21X1_521 NOR2X1_197/Y MUX2X1_6/B BUFX4_148/Y gnd OAI21X1_521/Y vdd OAI21X1
XOAI21X1_598 MUX2X1_25/B NOR2X1_219/Y OAI21X1_598/C gnd MUX2X1_26/A vdd OAI21X1
XOAI21X1_554 BUFX4_149/Y OAI21X1_554/B MUX2X1_26/S gnd OAI22X1_113/D vdd OAI21X1
XOAI21X1_587 INVX4_10/A INVX8_22/Y INVX1_151/A gnd NOR2X1_232/B vdd OAI21X1
XOAI21X1_510 NOR2X1_190/Y INVX2_90/Y BUFX4_149/Y gnd OAI21X1_510/Y vdd OAI21X1
XOAI21X1_565 BUFX4_147/Y OAI21X1_565/B BUFX4_162/Y gnd OAI22X1_116/D vdd OAI21X1
XOAI21X1_576 NOR2X1_212/Y INVX2_95/Y BUFX4_147/Y gnd OAI21X1_576/Y vdd OAI21X1
XOAI21X1_543 INVX2_93/Y NAND2X1_9/B OAI21X1_621/C gnd OAI21X1_544/B vdd OAI21X1
XINVX1_7 INVX1_7/A gnd INVX1_7/Y vdd INVX1
XOAI21X1_532 BUFX4_151/Y OAI21X1_532/B BUFX4_161/Y gnd OAI22X1_109/D vdd OAI21X1
XFILL_8_1_1 gnd vdd FILL
XFILL_16_0_1 gnd vdd FILL
XAND2X2_7 AND2X2_7/A AND2X2_7/B gnd AND2X2_7/Y vdd AND2X2
XOAI21X1_384 BUFX4_156/Y OAI21X1_384/B OAI21X1_384/C gnd AOI22X1_50/C vdd OAI21X1
XOAI21X1_395 BUFX4_160/Y OAI21X1_395/B OAI21X1_395/C gnd AOI22X1_54/C vdd OAI21X1
XOAI21X1_340 INVX1_50/A NOR2X1_79/B BUFX4_171/Y gnd OAI22X1_81/A vdd OAI21X1
XOAI21X1_373 BUFX4_146/Y BUFX4_255/Y INVX2_121/A gnd OAI21X1_374/C vdd OAI21X1
XOAI21X1_351 INVX2_103/Y BUFX4_91/Y OAI21X1_508/C gnd AOI21X1_81/B vdd OAI21X1
XFILL_10_7_0 gnd vdd FILL
XOAI21X1_362 BUFX4_160/Y AOI21X1_92/B AOI21X1_92/Y gnd AOI22X1_42/C vdd OAI21X1
XMUX2X1_19 wb_dat_i[29] MUX2X1_19/B BUFX4_91/Y gnd MUX2X1_19/Y vdd MUX2X1
XAOI22X1_2 BUFX4_93/Y INVX1_9/A INVX2_145/A BUFX4_67/Y gnd AOI22X1_2/Y vdd AOI22X1
XOAI21X1_170 INVX8_10/Y OR2X2_1/A INVX2_44/A gnd OAI21X1_171/C vdd OAI21X1
XOAI21X1_181 AOI21X1_23/Y NOR2X1_44/Y NOR2X1_47/B gnd OAI21X1_182/C vdd OAI21X1
XOAI21X1_192 BUFX4_183/Y OR2X2_8/B INVX2_49/Y gnd OAI21X1_193/C vdd OAI21X1
XNAND2X1_78 AND2X2_5/A AND2X2_5/B gnd NOR3X1_1/C vdd NAND2X1
XNAND2X1_89 NAND2X1_89/A NOR2X1_49/B gnd NOR2X1_256/B vdd NAND2X1
XNAND2X1_67 wb_stb_i wb_cyc_i gnd NOR2X1_16/B vdd NAND2X1
XNAND2X1_45 NAND2X1_45/A NOR2X1_12/Y gnd DFFSR_75/D vdd NAND2X1
XNAND2X1_34 wb_adr_i[2] wb_adr_i[3] gnd NAND2X1_34/Y vdd NAND2X1
XNAND2X1_12 BUFX4_190/Y wb_dat_i[19] gnd OAI21X1_23/C vdd NAND2X1
XNAND2X1_56 INVX1_105/A BUFX4_113/Y gnd NAND3X1_77/A vdd NAND2X1
XNAND2X1_23 BUFX4_23/Y wb_dat_i[14] gnd OAI21X1_45/C vdd NAND2X1
XAOI21X1_205 INVX2_72/Y OAI21X1_667/B BUFX4_267/Y gnd OAI21X1_667/C vdd AOI21X1
XAOI21X1_216 INVX2_74/Y OAI21X1_688/B BUFX4_260/Y gnd OAI21X1_688/C vdd AOI21X1
XAOI22X1_54 INVX2_112/Y BUFX4_247/Y AOI22X1_54/C AOI22X1_54/D gnd DFFSR_218/D vdd
+ AOI22X1
XAOI22X1_10 BUFX4_93/Y INVX1_13/A INVX2_136/A BUFX4_67/Y gnd NAND3X1_76/B vdd AOI22X1
XAOI22X1_65 INVX2_91/Y BUFX4_146/Y AOI22X1_65/C AOI22X1_65/D gnd DFFSR_197/D vdd AOI22X1
XAOI22X1_87 INVX2_74/Y BUFX4_3/Y AOI22X1_87/C AOI22X1_87/D gnd DFFSR_171/D vdd AOI22X1
XAOI22X1_32 BUFX4_98/Y INVX1_8/A INVX2_68/A BUFX4_70/Y gnd NAND3X1_87/B vdd AOI22X1
XAOI22X1_43 INVX2_109/Y BUFX4_248/Y AOI22X1_43/C AOI22X1_43/D gnd DFFSR_234/D vdd
+ AOI22X1
XAOI22X1_76 INVX2_113/Y BUFX4_7/Y AOI22X1_76/C AOI22X1_76/D gnd DFFSR_154/D vdd AOI22X1
XAOI22X1_21 INVX8_6/Y INVX2_116/A INVX2_117/A INVX8_7/Y gnd NAND3X1_82/C vdd AOI22X1
XFILL_24_6_0 gnd vdd FILL
XNAND3X1_209 BUFX4_64/Y NAND3X1_209/B NAND3X1_209/C gnd AOI21X1_51/B vdd NAND3X1
XOAI22X1_5 OAI22X1_5/A INVX2_11/Y INVX2_40/Y OAI22X1_5/D gnd NOR2X1_3/A vdd OAI22X1
XFILL_7_7_0 gnd vdd FILL
XFILL_15_6_0 gnd vdd FILL
XDFFSR_207 INVX2_59/A CLKBUF1_28/Y BUFX4_8/Y vdd DFFSR_207/D gnd vdd DFFSR
XDFFSR_218 INVX1_38/A CLKBUF1_41/Y BUFX4_17/Y vdd DFFSR_218/D gnd vdd DFFSR
XDFFSR_229 INVX2_92/A CLKBUF1_7/Y BUFX4_9/Y vdd DFFSR_229/D gnd vdd DFFSR
XINVX2_47 INVX2_47/A gnd INVX2_47/Y vdd INVX2
XINVX2_58 INVX2_58/A gnd MUX2X1_5/A vdd INVX2
XINVX2_36 INVX2_36/A gnd INVX2_36/Y vdd INVX2
XINVX2_25 INVX4_4/A gnd INVX2_25/Y vdd INVX2
XINVX2_69 INVX2_69/A gnd INVX2_69/Y vdd INVX2
XINVX2_14 DFFSR_5/Q gnd INVX2_14/Y vdd INVX2
XFILL_30_4_0 gnd vdd FILL
XNAND2X1_219 INVX4_12/A AND2X2_19/A gnd OAI21X1_568/B vdd NAND2X1
XNAND2X1_208 INVX8_17/A INVX1_148/Y gnd OAI21X1_462/B vdd NAND2X1
XNOR2X1_263 INVX4_10/A INVX1_17/A gnd NOR2X1_263/Y vdd NOR2X1
XBUFX4_181 INVX8_12/Y gnd BUFX4_181/Y vdd BUFX4
XNOR2X1_241 INVX8_25/Y NOR2X1_241/B gnd MUX2X1_42/S vdd NOR2X1
XNOR2X1_252 INVX8_24/Y NOR2X1_253/B gnd NOR2X1_252/Y vdd NOR2X1
XNOR2X1_230 INVX8_25/Y NOR2X1_230/B gnd MUX2X1_32/S vdd NOR2X1
XBUFX4_170 NOR3X1_9/Y gnd INVX1_138/A vdd BUFX4
XBUFX4_192 NAND3X1_1/Y gnd OAI22X1_8/A vdd BUFX4
XOAI21X1_703 OR2X2_5/B INVX4_9/A BUFX4_123/Y gnd OAI22X1_121/D vdd OAI21X1
XFILL_21_4_0 gnd vdd FILL
XFILL_29_5_0 gnd vdd FILL
XFILL_4_5_0 gnd vdd FILL
XFILL_12_4_0 gnd vdd FILL
XINVX8_1 INVX8_1/A gnd INVX8_1/Y vdd INVX8
XBUFX4_43 BUFX4_45/A gnd BUFX4_43/Y vdd BUFX4
XBUFX4_21 wb_sel_i[1] gnd BUFX4_21/Y vdd BUFX4
XBUFX4_10 BUFX4_9/A gnd BUFX4_10/Y vdd BUFX4
XBUFX4_32 BUFX4_35/A gnd BUFX4_32/Y vdd BUFX4
XBUFX4_87 wb_sel_i[3] gnd BUFX4_87/Y vdd BUFX4
XBUFX4_76 BUFX4_76/A gnd BUFX4_76/Y vdd BUFX4
XBUFX4_98 INVX8_1/Y gnd BUFX4_98/Y vdd BUFX4
XBUFX4_54 INVX8_15/Y gnd BUFX4_54/Y vdd BUFX4
XBUFX4_65 BUFX4_66/A gnd BUFX4_65/Y vdd BUFX4
XFILL_10_2 gnd vdd FILL
XXNOR2X1_8 OR2X2_5/A INVX4_8/A gnd OR2X2_8/A vdd XNOR2X1
XOR2X2_6 OR2X2_6/A OR2X2_6/B gnd OR2X2_6/Y vdd OR2X2
XOR2X2_13 OR2X2_13/A OR2X2_13/B gnd OR2X2_13/Y vdd OR2X2
XINVX8_13 INVX8_13/A gnd INVX8_13/Y vdd INVX8
XINVX8_24 INVX8_24/A gnd INVX8_24/Y vdd INVX8
XOAI21X1_555 NOR2X1_209/Y MUX2X1_2/A BUFX4_148/Y gnd OAI21X1_555/Y vdd OAI21X1
XOAI21X1_522 MUX2X1_6/B BUFX4_88/Y OAI21X1_522/C gnd OAI21X1_523/B vdd OAI21X1
XOAI21X1_588 INVX4_10/A INVX8_20/Y MUX2X1_22/Y gnd OAI21X1_589/C vdd OAI21X1
XOAI21X1_511 INVX2_90/Y BUFX4_91/Y OAI21X1_511/C gnd OAI21X1_512/B vdd OAI21X1
XOAI21X1_599 BUFX4_125/Y INVX8_22/Y INVX1_154/A gnd NOR2X1_236/B vdd OAI21X1
XOAI21X1_577 INVX2_95/Y MUX2X1_43/S OAI21X1_658/C gnd OAI21X1_578/B vdd OAI21X1
XOAI21X1_544 BUFX4_151/Y OAI21X1_544/B BUFX4_165/Y gnd OAI22X1_111/D vdd OAI21X1
XINVX1_8 INVX1_8/A gnd INVX1_8/Y vdd INVX1
XOAI21X1_500 BUFX4_229/Y OAI21X1_500/B INVX8_16/A gnd OAI22X1_100/D vdd OAI21X1
XOAI21X1_533 BUFX4_126/Y INVX2_156/Y INVX1_146/Y gnd INVX1_155/A vdd OAI21X1
XOAI21X1_566 BUFX4_159/Y OAI21X1_566/B OAI21X1_566/C gnd AOI22X1_76/C vdd OAI21X1
XFILL_9_1 gnd vdd FILL
XFILL_26_3_0 gnd vdd FILL
XFILL_1_3_0 gnd vdd FILL
XOAI21X1_341 BUFX4_178/Y MUX2X1_23/B BUFX4_34/Y gnd OAI22X1_82/A vdd OAI21X1
XOAI21X1_330 INVX2_106/A NOR2X1_89/B INVX1_138/A gnd OAI22X1_77/A vdd OAI21X1
XFILL_10_7_1 gnd vdd FILL
XAND2X2_8 OR2X2_5/A OR2X2_5/B gnd AND2X2_8/Y vdd AND2X2
XOAI21X1_385 MUX2X1_13/A BUFX4_22/Y OAI21X1_553/C gnd OAI21X1_385/Y vdd OAI21X1
XOAI21X1_352 BUFX4_156/Y AOI21X1_82/B AOI21X1_82/Y gnd AOI22X1_37/C vdd OAI21X1
XOAI21X1_396 INVX2_112/Y BUFX4_106/Y OAI21X1_567/C gnd OAI21X1_396/Y vdd OAI21X1
XOAI21X1_363 INVX2_139/Y BUFX4_89/Y OAI21X1_525/C gnd AOI21X1_93/B vdd OAI21X1
XOAI21X1_374 OAI21X1_374/A BUFX4_249/Y OAI21X1_374/C gnd DFFSR_230/D vdd OAI21X1
XFILL_9_4_0 gnd vdd FILL
XFILL_17_3_0 gnd vdd FILL
XOAI21X1_171 NOR2X1_46/B XNOR2X1_1/Y OAI21X1_171/C gnd DFFSR_105/D vdd OAI21X1
XOAI21X1_160 XOR2X1_1/A NOR2X1_46/B OAI21X1_160/C gnd DFFSR_100/D vdd OAI21X1
XOAI21X1_182 INVX1_73/Y NOR2X1_47/B OAI21X1_182/C gnd DFFSR_110/D vdd OAI21X1
XAOI22X1_3 INVX8_6/Y INVX2_93/A INVX2_91/A INVX8_7/Y gnd AOI22X1_3/Y vdd AOI22X1
XOAI21X1_193 INVX1_83/Y BUFX4_183/Y OAI21X1_193/C gnd INVX1_107/A vdd OAI21X1
XNAND2X1_79 NOR2X1_43/B NOR2X1_25/Y gnd INVX8_10/A vdd NAND2X1
XNAND2X1_68 INVX1_75/A NOR2X1_22/Y gnd OR2X2_2/A vdd NAND2X1
XNAND2X1_46 NAND2X1_46/A NOR2X1_13/Y gnd DFFSR_76/D vdd NAND2X1
XNAND2X1_35 AOI21X1_1/Y NOR2X1_2/Y gnd DFFSR_65/D vdd NAND2X1
XNAND2X1_24 BUFX4_25/Y wb_dat_i[15] gnd OAI21X1_47/C vdd NAND2X1
XNAND2X1_57 MUX2X1_29/B BUFX4_116/Y gnd NAND3X1_78/A vdd NAND2X1
XNAND2X1_13 BUFX4_185/Y wb_dat_i[20] gnd OAI21X1_25/C vdd NAND2X1
XAOI21X1_206 BUFX4_267/Y OAI21X1_668/Y BUFX4_247/Y gnd AOI22X1_82/D vdd AOI21X1
XAOI21X1_217 BUFX4_258/Y OAI21X1_689/Y BUFX4_3/Y gnd AOI22X1_87/D vdd AOI21X1
XNOR3X1_1 NOR3X1_1/A NOR3X1_1/B NOR3X1_1/C gnd NOR3X1_1/Y vdd NOR3X1
XAOI22X1_33 INVX1_67/Y NOR2X1_46/B NOR2X1_46/Y AOI22X1_33/D gnd DFFSR_112/D vdd AOI22X1
XAOI22X1_55 INVX2_100/Y BUFX4_247/Y AOI22X1_55/C AOI22X1_55/D gnd DFFSR_217/D vdd
+ AOI22X1
XAOI22X1_77 INVX2_101/Y BUFX4_4/Y AOI22X1_77/C AOI22X1_77/D gnd DFFSR_153/D vdd AOI22X1
XAOI22X1_66 INVX2_147/Y BUFX4_143/Y AOI22X1_66/C AOI22X1_66/D gnd DFFSR_196/D vdd
+ AOI22X1
XAOI22X1_11 INVX8_6/Y INVX2_98/A INVX2_99/A INVX8_7/Y gnd NAND3X1_77/C vdd AOI22X1
XAOI22X1_22 BUFX4_95/Y INVX1_3/A INVX2_115/A BUFX4_70/Y gnd NAND3X1_82/B vdd AOI22X1
XAOI22X1_88 INVX2_77/Y BUFX4_5/Y AOI22X1_88/C AOI22X1_88/D gnd DFFSR_155/D vdd AOI22X1
XAOI22X1_44 INVX2_97/Y BUFX4_245/Y AOI22X1_44/C AOI22X1_44/D gnd DFFSR_233/D vdd AOI22X1
XFILL_24_6_1 gnd vdd FILL
XFILL_23_1_0 gnd vdd FILL
XOAI22X1_6 INVX8_5/A INVX1_23/Y INVX8_2/A INVX2_24/Y gnd OAI22X1_6/Y vdd OAI22X1
XFILL_6_2_0 gnd vdd FILL
XFILL_7_7_1 gnd vdd FILL
XFILL_15_6_1 gnd vdd FILL
XFILL_14_1_0 gnd vdd FILL
XDFFSR_208 INVX2_130/A CLKBUF1_21/Y BUFX4_15/Y vdd DFFSR_208/D gnd vdd DFFSR
XDFFSR_219 INVX2_76/A CLKBUF1_40/Y BUFX4_17/Y vdd DFFSR_219/D gnd vdd DFFSR
XINVX2_26 INVX4_6/A gnd INVX2_26/Y vdd INVX2
XINVX2_15 DFFSR_6/Q gnd INVX2_15/Y vdd INVX2
XINVX2_48 INVX2_48/A gnd INVX2_48/Y vdd INVX2
XINVX2_59 INVX2_59/A gnd MUX2X1_5/B vdd INVX2
XINVX2_37 INVX2_37/A gnd INVX2_37/Y vdd INVX2
XFILL_30_4_1 gnd vdd FILL
XNAND2X1_209 INVX8_19/A INVX1_145/Y gnd OAI21X1_465/B vdd NAND2X1
XBUFX4_182 INVX8_12/Y gnd NOR2X1_73/B vdd BUFX4
XNOR2X1_231 INVX8_25/Y NOR2X1_231/B gnd AND2X2_25/B vdd NOR2X1
XNOR2X1_220 INVX8_24/Y NOR2X1_236/B gnd MUX2X1_28/S vdd NOR2X1
XNOR2X1_242 INVX1_157/A BUFX4_154/Y gnd NOR2X1_242/Y vdd NOR2X1
XBUFX4_193 NAND3X1_1/Y gnd BUFX4_193/Y vdd BUFX4
XBUFX4_171 NOR3X1_9/Y gnd BUFX4_171/Y vdd BUFX4
XBUFX4_160 INVX8_14/Y gnd BUFX4_160/Y vdd BUFX4
XNOR2X1_253 INVX8_25/Y NOR2X1_253/B gnd MUX2X1_48/S vdd NOR2X1
XOAI21X1_704 INVX4_2/A INVX4_9/A BUFX4_123/Y gnd OAI22X1_122/D vdd OAI21X1
XFILL_21_4_1 gnd vdd FILL
XFILL_29_5_1 gnd vdd FILL
XFILL_28_0_0 gnd vdd FILL
XFILL_3_0_0 gnd vdd FILL
XFILL_4_5_1 gnd vdd FILL
XINVX8_2 INVX8_2/A gnd INVX8_2/Y vdd INVX8
XFILL_12_4_1 gnd vdd FILL
XBUFX4_44 BUFX4_45/A gnd BUFX4_44/Y vdd BUFX4
XBUFX4_22 wb_sel_i[1] gnd BUFX4_22/Y vdd BUFX4
XBUFX4_33 BUFX4_35/A gnd BUFX4_33/Y vdd BUFX4
XBUFX4_66 BUFX4_66/A gnd BUFX4_66/Y vdd BUFX4
XBUFX4_77 NOR3X1_8/Y gnd BUFX4_77/Y vdd BUFX4
XBUFX4_55 INVX8_15/Y gnd BUFX4_55/Y vdd BUFX4
XBUFX4_11 BUFX4_9/A gnd BUFX4_11/Y vdd BUFX4
XBUFX4_88 wb_sel_i[3] gnd BUFX4_88/Y vdd BUFX4
XFILL_19_0_0 gnd vdd FILL
XBUFX4_99 INVX8_1/Y gnd BUFX4_99/Y vdd BUFX4
XFILL_10_3 gnd vdd FILL
XOR2X2_7 OR2X2_7/A OR2X2_7/B gnd OR2X2_7/Y vdd OR2X2
XXNOR2X1_9 XNOR2X1_9/A INVX4_4/A gnd XNOR2X1_9/Y vdd XNOR2X1
XINVX2_160 NOR2X1_85/Y gnd INVX2_160/Y vdd INVX2
XOAI21X1_523 BUFX4_148/Y OAI21X1_523/B BUFX4_164/Y gnd OAI22X1_106/D vdd OAI21X1
XOAI21X1_512 BUFX4_147/Y OAI21X1_512/B BUFX4_162/Y gnd OAI22X1_103/D vdd OAI21X1
XOAI21X1_501 NOR2X1_184/Y INVX2_96/Y BUFX4_233/Y gnd OAI21X1_501/Y vdd OAI21X1
XINVX1_9 INVX1_9/A gnd INVX1_9/Y vdd INVX1
XINVX8_14 INVX8_14/A gnd INVX8_14/Y vdd INVX8
XINVX8_25 INVX8_25/A gnd INVX8_25/Y vdd INVX8
XOAI21X1_556 MUX2X1_2/A BUFX4_25/Y OAI21X1_635/C gnd OAI21X1_557/B vdd OAI21X1
XOAI21X1_589 MUX2X1_26/S MUX2X1_21/Y OAI21X1_589/C gnd DFFSR_144/D vdd OAI21X1
XOAI21X1_578 BUFX4_150/Y OAI21X1_578/B BUFX4_166/Y gnd OAI22X1_117/D vdd OAI21X1
XOAI21X1_545 BUFX4_157/Y OAI21X1_545/B OAI21X1_545/C gnd AOI22X1_73/C vdd OAI21X1
XOAI21X1_534 BUFX4_157/Y OAI21X1_534/B OAI21X1_534/C gnd AOI22X1_71/C vdd OAI21X1
XOAI21X1_567 INVX2_113/Y MUX2X1_37/S OAI21X1_567/C gnd OAI21X1_567/Y vdd OAI21X1
XFILL_9_2 gnd vdd FILL
XNAND3X1_190 INVX2_117/Y BUFX4_76/Y BUFX4_57/Y gnd NAND3X1_191/C vdd NAND3X1
XFILL_26_3_1 gnd vdd FILL
XFILL_1_3_1 gnd vdd FILL
XOAI21X1_320 NOR2X1_99/B INVX1_93/A BUFX4_33/Y gnd OAI22X1_74/A vdd OAI21X1
XOAI21X1_353 MUX2X1_9/B BUFX4_86/Y OAI21X1_511/C gnd AOI21X1_83/B vdd OAI21X1
XOAI21X1_342 NOR2X1_87/B INVX1_113/A BUFX4_37/Y gnd OAI22X1_82/D vdd OAI21X1
XOAI21X1_331 NOR2X1_78/B MUX2X1_17/B BUFX4_32/Y gnd OAI22X1_78/A vdd OAI21X1
XOAI21X1_364 BUFX4_155/Y AOI21X1_94/B AOI21X1_94/Y gnd AOI22X1_43/C vdd OAI21X1
XAND2X2_9 INVX1_88/Y AND2X2_9/B gnd AND2X2_9/Y vdd AND2X2
XOAI21X1_386 BUFX4_156/Y OAI21X1_386/B OAI21X1_386/C gnd AOI22X1_51/C vdd OAI21X1
XOAI21X1_397 BUFX4_156/Y OAI21X1_397/B OAI21X1_397/C gnd AOI22X1_55/C vdd OAI21X1
XOAI21X1_375 BUFX4_158/Y OAI21X1_375/B OAI21X1_375/C gnd AOI22X1_47/C vdd OAI21X1
XFILL_9_4_1 gnd vdd FILL
XFILL_17_3_1 gnd vdd FILL
XOAI21X1_172 NAND2X1_82/Y XNOR2X1_1/B NOR2X1_27/B gnd AND2X2_7/A vdd OAI21X1
XOAI21X1_161 INVX8_10/Y OR2X2_1/A INVX2_40/A gnd OAI21X1_162/C vdd OAI21X1
XOAI21X1_183 NOR3X1_2/Y AOI21X1_24/Y NOR2X1_47/B gnd NAND2X1_83/B vdd OAI21X1
XOAI21X1_194 INVX2_49/Y OR2X2_8/B XNOR2X1_3/Y gnd INVX1_85/A vdd OAI21X1
XAOI22X1_4 BUFX4_93/Y INVX1_10/A INVX2_92/A BUFX4_67/Y gnd AOI22X1_4/Y vdd AOI22X1
XOAI21X1_150 BUFX4_28/Y BUFX4_120/Y INVX1_1/A gnd BUFX2_27/A vdd OAI21X1
XNAND2X1_25 wb_dat_i[0] MUX2X1_41/S gnd OAI21X1_77/C vdd NAND2X1
XNAND2X1_14 BUFX4_187/Y wb_dat_i[21] gnd OAI21X1_27/C vdd NAND2X1
XNAND2X1_69 INVX1_80/A NOR2X1_24/Y gnd OR2X2_2/B vdd NAND2X1
XNAND2X1_47 NAND2X1_47/A NOR2X1_14/Y gnd DFFSR_77/D vdd NAND2X1
XNAND2X1_36 AOI21X1_2/Y NOR2X1_3/Y gnd DFFSR_66/D vdd NAND2X1
XNAND2X1_58 INVX1_98/A BUFX4_116/Y gnd NAND3X1_79/A vdd NAND2X1
XAOI22X1_23 INVX8_6/Y INVX2_54/A INVX2_59/A INVX8_7/Y gnd NAND3X1_83/C vdd AOI22X1
XAOI21X1_207 INVX2_73/Y OAI21X1_669/B BUFX4_262/Y gnd OAI21X1_669/C vdd AOI21X1
XAOI22X1_12 BUFX4_98/Y INVX1_14/A INVX2_97/A BUFX4_69/Y gnd NAND3X1_77/B vdd AOI22X1
XAOI21X1_218 INVX2_77/Y OAI21X1_690/B INVX8_23/A gnd OAI21X1_690/C vdd AOI21X1
XAOI22X1_34 AOI22X1_34/A AOI22X1_34/B AOI22X1_34/C AOI22X1_34/D gnd BUFX4_228/A vdd
+ AOI22X1
XNOR3X1_2 NOR3X1_2/A NOR3X1_2/B NOR3X1_3/C gnd NOR3X1_2/Y vdd NOR3X1
XAOI22X1_45 INVX2_136/Y BUFX4_244/Y AOI22X1_45/C AOI22X1_45/D gnd DFFSR_232/D vdd
+ AOI22X1
XAOI22X1_56 INVX2_133/Y BUFX4_248/Y AOI22X1_56/C AOI22X1_56/D gnd DFFSR_216/D vdd
+ AOI22X1
XAOI22X1_78 INVX2_134/Y BUFX4_7/Y AOI22X1_78/C AOI22X1_78/D gnd DFFSR_152/D vdd AOI22X1
XAOI22X1_67 INVX2_108/Y BUFX4_144/Y AOI22X1_67/C AOI22X1_67/D gnd DFFSR_194/D vdd
+ AOI22X1
XAOI22X1_89 INVX2_76/Y BUFX4_246/Y AOI22X1_89/C AOI22X1_89/D gnd DFFSR_219/D vdd AOI22X1
XFILL_23_1_1 gnd vdd FILL
XOAI22X1_7 OAI22X1_7/A INVX1_25/Y INVX1_24/Y OAI22X1_7/D gnd NOR2X1_4/B vdd OAI22X1
XFILL_6_2_1 gnd vdd FILL
XFILL_14_1_1 gnd vdd FILL
XDFFSR_209 INVX2_88/A CLKBUF1_60/Y BUFX4_8/Y vdd DFFSR_209/D gnd vdd DFFSR
XINVX2_49 OR2X2_5/A gnd INVX2_49/Y vdd INVX2
XINVX2_38 INVX2_38/A gnd INVX2_38/Y vdd INVX2
XINVX2_27 INVX2_52/A gnd INVX2_27/Y vdd INVX2
XINVX2_16 DFFSR_7/Q gnd INVX2_16/Y vdd INVX2
XCLKBUF1_1 CLKBUF1_7/A gnd CLKBUF1_1/Y vdd CLKBUF1
XBUFX4_150 INVX8_23/Y gnd BUFX4_150/Y vdd BUFX4
XBUFX4_161 INVX8_21/Y gnd BUFX4_161/Y vdd BUFX4
XBUFX4_172 BUFX4_179/A gnd NOR2X1_78/B vdd BUFX4
XOAI21X1_705 INVX4_7/A INVX4_9/A OAI21X1_705/C gnd OAI21X1_706/A vdd OAI21X1
XNOR2X1_254 OR2X2_8/B BUFX4_123/Y gnd NOR2X1_254/Y vdd NOR2X1
XNOR2X1_210 INVX4_12/Y INVX1_153/Y gnd NOR2X1_210/Y vdd NOR2X1
XNOR2X1_232 INVX8_25/Y NOR2X1_232/B gnd MUX2X1_34/S vdd NOR2X1
XBUFX4_183 INVX8_12/Y gnd BUFX4_183/Y vdd BUFX4
XBUFX4_194 NAND3X1_1/Y gnd INVX8_1/A vdd BUFX4
XNOR2X1_221 INVX8_24/Y NOR2X1_237/B gnd MUX2X1_30/S vdd NOR2X1
XNOR2X1_243 INVX8_25/Y NOR2X1_243/B gnd MUX2X1_44/S vdd NOR2X1
XFILL_28_0_1 gnd vdd FILL
XFILL_3_0_1 gnd vdd FILL
XINVX8_3 INVX8_3/A gnd INVX8_3/Y vdd INVX8
XBUFX4_23 wb_sel_i[1] gnd BUFX4_23/Y vdd BUFX4
XBUFX4_89 wb_sel_i[3] gnd BUFX4_89/Y vdd BUFX4
XFILL_19_0_1 gnd vdd FILL
XBUFX4_45 BUFX4_45/A gnd BUFX4_45/Y vdd BUFX4
XBUFX4_34 BUFX4_35/A gnd BUFX4_34/Y vdd BUFX4
XBUFX4_67 INVX8_5/Y gnd BUFX4_67/Y vdd BUFX4
XBUFX4_12 BUFX4_9/A gnd BUFX4_12/Y vdd BUFX4
XBUFX4_56 BUFX4_61/A gnd BUFX4_56/Y vdd BUFX4
XBUFX4_78 NOR3X1_8/Y gnd BUFX4_78/Y vdd BUFX4
XINVX2_150 INVX1_18/A gnd INVX2_150/Y vdd INVX2
XOR2X2_8 OR2X2_8/A OR2X2_8/B gnd OR2X2_8/Y vdd OR2X2
XINVX8_26 wb_rst_i gnd BUFX4_9/A vdd INVX8
XOAI21X1_557 BUFX4_148/Y OAI21X1_557/B BUFX4_164/Y gnd OAI22X1_114/D vdd OAI21X1
XOAI21X1_513 NOR2X1_192/Y MUX2X1_15/B BUFX4_149/Y gnd OAI21X1_513/Y vdd OAI21X1
XFILL_22_7_0 gnd vdd FILL
XOAI21X1_524 NOR2X1_199/Y INVX2_140/Y BUFX4_147/Y gnd OAI21X1_524/Y vdd OAI21X1
XOAI21X1_502 INVX2_96/Y BUFX4_108/Y OAI21X1_658/C gnd OAI21X1_503/B vdd OAI21X1