* XSpice netlist created from SPICE and liberty sources by spi2xspice.py
*SPICE netlist created from BLIF module spi_top by blif2BSpice
.subckt spi_top a_vdd a_gnd a_wb_clk_i a_wb_rst_i a_wb_adr_i_0_ a_wb_adr_i_1_ a_wb_adr_i_2_ a_wb_adr_i_3_ a_wb_adr_i_4_ a_wb_dat_i_0_ a_wb_dat_i_1_ a_wb_dat_i_2_ a_wb_dat_i_3_ a_wb_dat_i_4_ a_wb_dat_i_5_ a_wb_dat_i_6_ a_wb_dat_i_7_ a_wb_dat_i_8_ a_wb_dat_i_9_ a_wb_dat_i_10_ a_wb_dat_i_11_ a_wb_dat_i_12_ a_wb_dat_i_13_ a_wb_dat_i_14_ a_wb_dat_i_15_ a_wb_dat_i_16_ a_wb_dat_i_17_ a_wb_dat_i_18_ a_wb_dat_i_19_ a_wb_dat_i_20_ a_wb_dat_i_21_ a_wb_dat_i_22_ a_wb_dat_i_23_ a_wb_dat_i_24_ a_wb_dat_i_25_ a_wb_dat_i_26_ a_wb_dat_i_27_ a_wb_dat_i_28_ a_wb_dat_i_29_ a_wb_dat_i_30_ a_wb_dat_i_31_ a_wb_sel_i_0_ a_wb_sel_i_1_ a_wb_sel_i_2_ a_wb_sel_i_3_ a_wb_we_i a_wb_stb_i a_wb_cyc_i a_miso_pad_i a_wb_dat_o_0_ a_wb_dat_o_1_ a_wb_dat_o_2_ a_wb_dat_o_3_ a_wb_dat_o_4_ a_wb_dat_o_5_ a_wb_dat_o_6_ a_wb_dat_o_7_ a_wb_dat_o_8_ a_wb_dat_o_9_ a_wb_dat_o_10_ a_wb_dat_o_11_ a_wb_dat_o_12_ a_wb_dat_o_13_ a_wb_dat_o_14_ a_wb_dat_o_15_ a_wb_dat_o_16_ a_wb_dat_o_17_ a_wb_dat_o_18_ a_wb_dat_o_19_ a_wb_dat_o_20_ a_wb_dat_o_21_ a_wb_dat_o_22_ a_wb_dat_o_23_ a_wb_dat_o_24_ a_wb_dat_o_25_ a_wb_dat_o_26_ a_wb_dat_o_27_ a_wb_dat_o_28_ a_wb_dat_o_29_ a_wb_dat_o_30_ a_wb_dat_o_31_ a_wb_ack_o a_wb_err_o a_wb_int_o a_ss_pad_o_0_ a_ss_pad_o_1_ a_ss_pad_o_2_ a_ss_pad_o_3_ a_ss_pad_o_4_ a_ss_pad_o_5_ a_ss_pad_o_6_ a_ss_pad_o_7_ a_ss_pad_o_8_ a_ss_pad_o_9_ a_ss_pad_o_10_ a_ss_pad_o_11_ a_ss_pad_o_12_ a_ss_pad_o_13_ a_ss_pad_o_14_ a_ss_pad_o_15_ a_ss_pad_o_16_ a_ss_pad_o_17_ a_ss_pad_o_18_ a_ss_pad_o_19_ a_ss_pad_o_20_ a_ss_pad_o_21_ a_ss_pad_o_22_ a_ss_pad_o_23_ a_ss_pad_o_24_ a_ss_pad_o_25_ a_ss_pad_o_26_ a_ss_pad_o_27_ a_ss_pad_o_28_ a_ss_pad_o_29_ a_ss_pad_o_30_ a_ss_pad_o_31_ a_sclk_pad_o a_mosi_pad_o
ACLKBUF1_1 [wb_clk_i_bF$buf10] wb_clk_i_bF$buf10_bF$buf3 d_lut_CLKBUF1
ACLKBUF1_2 [wb_clk_i_bF$buf10] wb_clk_i_bF$buf10_bF$buf2 d_lut_CLKBUF1
ACLKBUF1_3 [wb_clk_i_bF$buf10] wb_clk_i_bF$buf10_bF$buf1 d_lut_CLKBUF1
ACLKBUF1_4 [wb_clk_i_bF$buf10] wb_clk_i_bF$buf10_bF$buf0 d_lut_CLKBUF1
ACLKBUF1_5 [wb_clk_i_bF$buf11] wb_clk_i_bF$buf11_bF$buf3 d_lut_CLKBUF1
ACLKBUF1_6 [wb_clk_i_bF$buf11] wb_clk_i_bF$buf11_bF$buf2 d_lut_CLKBUF1
ACLKBUF1_7 [wb_clk_i_bF$buf11] wb_clk_i_bF$buf11_bF$buf1 d_lut_CLKBUF1
ACLKBUF1_8 [wb_clk_i_bF$buf11] wb_clk_i_bF$buf11_bF$buf0 d_lut_CLKBUF1
ACLKBUF1_9 [wb_clk_i_bF$buf12] wb_clk_i_bF$buf12_bF$buf3 d_lut_CLKBUF1
ACLKBUF1_10 [wb_clk_i_bF$buf12] wb_clk_i_bF$buf12_bF$buf2 d_lut_CLKBUF1
ACLKBUF1_11 [wb_clk_i_bF$buf12] wb_clk_i_bF$buf12_bF$buf1 d_lut_CLKBUF1
ACLKBUF1_12 [wb_clk_i_bF$buf12] wb_clk_i_bF$buf12_bF$buf0 d_lut_CLKBUF1
ACLKBUF1_13 [wb_clk_i_bF$buf13] wb_clk_i_bF$buf13_bF$buf3 d_lut_CLKBUF1
ACLKBUF1_14 [wb_clk_i_bF$buf13] wb_clk_i_bF$buf13_bF$buf2 d_lut_CLKBUF1
ACLKBUF1_15 [wb_clk_i_bF$buf13] wb_clk_i_bF$buf13_bF$buf1 d_lut_CLKBUF1
ACLKBUF1_16 [wb_clk_i_bF$buf13] wb_clk_i_bF$buf13_bF$buf0 d_lut_CLKBUF1
ACLKBUF1_17 [wb_clk_i_bF$buf14] wb_clk_i_bF$buf14_bF$buf3 d_lut_CLKBUF1
ACLKBUF1_18 [wb_clk_i_bF$buf14] wb_clk_i_bF$buf14_bF$buf2 d_lut_CLKBUF1
ACLKBUF1_19 [wb_clk_i_bF$buf14] wb_clk_i_bF$buf14_bF$buf1 d_lut_CLKBUF1
ACLKBUF1_20 [wb_clk_i_bF$buf14] wb_clk_i_bF$buf14_bF$buf0 d_lut_CLKBUF1
ACLKBUF1_21 [wb_clk_i_bF$buf2] wb_clk_i_bF$buf2_bF$buf3 d_lut_CLKBUF1
ACLKBUF1_22 [wb_clk_i_bF$buf2] wb_clk_i_bF$buf2_bF$buf2 d_lut_CLKBUF1
ACLKBUF1_23 [wb_clk_i_bF$buf2] wb_clk_i_bF$buf2_bF$buf1 d_lut_CLKBUF1
ACLKBUF1_24 [wb_clk_i_bF$buf2] wb_clk_i_bF$buf2_bF$buf0 d_lut_CLKBUF1
ACLKBUF1_25 [wb_clk_i_bF$buf3] wb_clk_i_bF$buf3_bF$buf3 d_lut_CLKBUF1
ACLKBUF1_26 [wb_clk_i_bF$buf3] wb_clk_i_bF$buf3_bF$buf2 d_lut_CLKBUF1
ACLKBUF1_27 [wb_clk_i_bF$buf3] wb_clk_i_bF$buf3_bF$buf1 d_lut_CLKBUF1
ACLKBUF1_28 [wb_clk_i_bF$buf3] wb_clk_i_bF$buf3_bF$buf0 d_lut_CLKBUF1
ACLKBUF1_29 [wb_clk_i_bF$buf4] wb_clk_i_bF$buf4_bF$buf3 d_lut_CLKBUF1
ACLKBUF1_30 [wb_clk_i_bF$buf4] wb_clk_i_bF$buf4_bF$buf2 d_lut_CLKBUF1
ACLKBUF1_31 [wb_clk_i_bF$buf4] wb_clk_i_bF$buf4_bF$buf1 d_lut_CLKBUF1
ACLKBUF1_32 [wb_clk_i_bF$buf4] wb_clk_i_bF$buf4_bF$buf0 d_lut_CLKBUF1
ACLKBUF1_33 [wb_clk_i_bF$buf5] wb_clk_i_bF$buf5_bF$buf3 d_lut_CLKBUF1
ACLKBUF1_34 [wb_clk_i_bF$buf5] wb_clk_i_bF$buf5_bF$buf2 d_lut_CLKBUF1
ACLKBUF1_35 [wb_clk_i_bF$buf5] wb_clk_i_bF$buf5_bF$buf1 d_lut_CLKBUF1
ACLKBUF1_36 [wb_clk_i_bF$buf5] wb_clk_i_bF$buf5_bF$buf0 d_lut_CLKBUF1
ACLKBUF1_37 [wb_clk_i_bF$buf6] wb_clk_i_bF$buf6_bF$buf3 d_lut_CLKBUF1
ACLKBUF1_38 [wb_clk_i_bF$buf6] wb_clk_i_bF$buf6_bF$buf2 d_lut_CLKBUF1
ACLKBUF1_39 [wb_clk_i_bF$buf6] wb_clk_i_bF$buf6_bF$buf1 d_lut_CLKBUF1
ACLKBUF1_40 [wb_clk_i_bF$buf6] wb_clk_i_bF$buf6_bF$buf0 d_lut_CLKBUF1
ACLKBUF1_41 [wb_clk_i_bF$buf7] wb_clk_i_bF$buf7_bF$buf3 d_lut_CLKBUF1
ACLKBUF1_42 [wb_clk_i_bF$buf7] wb_clk_i_bF$buf7_bF$buf2 d_lut_CLKBUF1
ACLKBUF1_43 [wb_clk_i_bF$buf7] wb_clk_i_bF$buf7_bF$buf1 d_lut_CLKBUF1
ACLKBUF1_44 [wb_clk_i_bF$buf7] wb_clk_i_bF$buf7_bF$buf0 d_lut_CLKBUF1
ACLKBUF1_45 [wb_clk_i_bF$buf8] wb_clk_i_bF$buf8_bF$buf3 d_lut_CLKBUF1
ACLKBUF1_46 [wb_clk_i_bF$buf8] wb_clk_i_bF$buf8_bF$buf2 d_lut_CLKBUF1
ACLKBUF1_47 [wb_clk_i_bF$buf8] wb_clk_i_bF$buf8_bF$buf1 d_lut_CLKBUF1
ACLKBUF1_48 [wb_clk_i_bF$buf8] wb_clk_i_bF$buf8_bF$buf0 d_lut_CLKBUF1
ACLKBUF1_49 [wb_clk_i_bF$buf9] wb_clk_i_bF$buf9_bF$buf3 d_lut_CLKBUF1
ACLKBUF1_50 [wb_clk_i_bF$buf9] wb_clk_i_bF$buf9_bF$buf2 d_lut_CLKBUF1
ACLKBUF1_51 [wb_clk_i_bF$buf9] wb_clk_i_bF$buf9_bF$buf1 d_lut_CLKBUF1
ACLKBUF1_52 [wb_clk_i_bF$buf9] wb_clk_i_bF$buf9_bF$buf0 d_lut_CLKBUF1
ABUFX4_1 [_1066_] _1066__bF$buf6 d_lut_BUFX4
ABUFX4_2 [_1066_] _1066__bF$buf5 d_lut_BUFX4
ABUFX4_3 [_1066_] _1066__bF$buf4 d_lut_BUFX4
ABUFX4_4 [_1066_] _1066__bF$buf3 d_lut_BUFX4
ABUFX4_5 [_1066_] _1066__bF$buf2 d_lut_BUFX4
ABUFX4_6 [_1066_] _1066__bF$buf1 d_lut_BUFX4
ABUFX4_7 [_1066_] _1066__bF$buf0 d_lut_BUFX4
ABUFX4_8 [_547_] _547__bF$buf10 d_lut_BUFX4
ABUFX4_9 [_547_] _547__bF$buf9 d_lut_BUFX4
ABUFX4_10 [_547_] _547__bF$buf8 d_lut_BUFX4
ABUFX4_11 [_547_] _547__bF$buf7 d_lut_BUFX4
ABUFX4_12 [_547_] _547__bF$buf6 d_lut_BUFX4
ABUFX4_13 [_547_] _547__bF$buf5 d_lut_BUFX4
ABUFX4_14 [_547_] _547__bF$buf4 d_lut_BUFX4
ABUFX4_15 [_547_] _547__bF$buf3 d_lut_BUFX4
ABUFX4_16 [_547_] _547__bF$buf2 d_lut_BUFX4
ABUFX4_17 [_547_] _547__bF$buf1 d_lut_BUFX4
ABUFX4_18 [_547_] _547__bF$buf0 d_lut_BUFX4
ABUFX4_19 [wb_sel_i_1_] wb_sel_i_1_bF$buf7_ d_lut_BUFX4
ABUFX4_20 [wb_sel_i_1_] wb_sel_i_1_bF$buf6_ d_lut_BUFX4
ABUFX4_21 [wb_sel_i_1_] wb_sel_i_1_bF$buf5_ d_lut_BUFX4
ABUFX4_22 [wb_sel_i_1_] wb_sel_i_1_bF$buf4_ d_lut_BUFX4
ABUFX4_23 [wb_sel_i_1_] wb_sel_i_1_bF$buf3_ d_lut_BUFX4
ABUFX4_24 [wb_sel_i_1_] wb_sel_i_1_bF$buf2_ d_lut_BUFX4
ABUFX4_25 [wb_sel_i_1_] wb_sel_i_1_bF$buf1_ d_lut_BUFX4
ABUFX4_26 [wb_sel_i_1_] wb_sel_i_1_bF$buf0_ d_lut_BUFX4
ABUFX4_27 [_156_] _156__bF$buf4 d_lut_BUFX4
ABUFX4_28 [_156_] _156__bF$buf3 d_lut_BUFX4
ABUFX4_29 [_156_] _156__bF$buf2 d_lut_BUFX4
ABUFX4_30 [_156_] _156__bF$buf1 d_lut_BUFX4
ABUFX4_31 [_156_] _156__bF$buf0 d_lut_BUFX4
ABUFX4_32 [_2094_] _2094__bF$buf3 d_lut_BUFX4
ABUFX4_33 [_2094_] _2094__bF$buf2 d_lut_BUFX4
ABUFX4_34 [_2094_] _2094__bF$buf1 d_lut_BUFX4
ABUFX4_35 [_2094_] _2094__bF$buf0 d_lut_BUFX4
ABUFX4_36 [_2091_] _2091__bF$buf3 d_lut_BUFX4
ABUFX4_37 [_2091_] _2091__bF$buf2 d_lut_BUFX4
ABUFX4_38 [_2091_] _2091__bF$buf1 d_lut_BUFX4
ABUFX4_39 [_2091_] _2091__bF$buf0 d_lut_BUFX4
ABUFX4_40 [_693_] _693__bF$buf5 d_lut_BUFX4
ABUFX4_41 [_693_] _693__bF$buf4 d_lut_BUFX4
ABUFX4_42 [_693_] _693__bF$buf3 d_lut_BUFX4
ABUFX4_43 [_693_] _693__bF$buf2 d_lut_BUFX4
ABUFX4_44 [_693_] _693__bF$buf1 d_lut_BUFX4
ABUFX4_45 [_693_] _693__bF$buf0 d_lut_BUFX4
ABUFX4_46 [_1606_] _1606__bF$buf5 d_lut_BUFX4
ABUFX4_47 [_1606_] _1606__bF$buf4 d_lut_BUFX4
ABUFX4_48 [_1606_] _1606__bF$buf3 d_lut_BUFX4
ABUFX4_49 [_1606_] _1606__bF$buf2 d_lut_BUFX4
ABUFX4_50 [_1606_] _1606__bF$buf1 d_lut_BUFX4
ABUFX4_51 [_1606_] _1606__bF$buf0 d_lut_BUFX4
ABUFX4_52 [_687_] _687__bF$buf3 d_lut_BUFX4
ABUFX4_53 [_687_] _687__bF$buf2 d_lut_BUFX4
ABUFX4_54 [_687_] _687__bF$buf1 d_lut_BUFX4
ABUFX4_55 [_687_] _687__bF$buf0 d_lut_BUFX4
ABUFX4_56 [_1603_] _1603__bF$buf5 d_lut_BUFX4
ABUFX4_57 [_1603_] _1603__bF$buf4 d_lut_BUFX4
ABUFX4_58 [_1603_] _1603__bF$buf3 d_lut_BUFX4
ABUFX4_59 [_1603_] _1603__bF$buf2 d_lut_BUFX4
ABUFX4_60 [_1603_] _1603__bF$buf1 d_lut_BUFX4
ABUFX4_61 [_1603_] _1603__bF$buf0 d_lut_BUFX4
ABUFX4_62 [_1582_] _1582__bF$buf4 d_lut_BUFX4
ABUFX4_63 [_1582_] _1582__bF$buf3 d_lut_BUFX4
ABUFX4_64 [_1582_] _1582__bF$buf2 d_lut_BUFX4
ABUFX4_65 [_1582_] _1582__bF$buf1 d_lut_BUFX4
ABUFX4_66 [_1582_] _1582__bF$buf0 d_lut_BUFX4
ABUFX4_67 [_358_] _358__bF$buf3 d_lut_BUFX4
ABUFX4_68 [_358_] _358__bF$buf2 d_lut_BUFX4
ABUFX4_69 [_358_] _358__bF$buf1 d_lut_BUFX4
ABUFX4_70 [_358_] _358__bF$buf0 d_lut_BUFX4
ABUFX4_71 [_1600_] _1600__bF$buf5 d_lut_BUFX4
ABUFX4_72 [_1600_] _1600__bF$buf4 d_lut_BUFX4
ABUFX4_73 [_1600_] _1600__bF$buf3 d_lut_BUFX4
ABUFX4_74 [_1600_] _1600__bF$buf2 d_lut_BUFX4
ABUFX4_75 [_1600_] _1600__bF$buf1 d_lut_BUFX4
ABUFX4_76 [_1600_] _1600__bF$buf0 d_lut_BUFX4
ABUFX4_77 [_2041_] _2041__bF$buf3 d_lut_BUFX4
ABUFX4_78 [_2041_] _2041__bF$buf2 d_lut_BUFX4
ABUFX4_79 [_2041_] _2041__bF$buf1 d_lut_BUFX4
ABUFX4_80 [_2041_] _2041__bF$buf0 d_lut_BUFX4
ABUFX4_81 [_1576_] _1576__bF$buf4 d_lut_BUFX4
ABUFX4_82 [_1576_] _1576__bF$buf3 d_lut_BUFX4
ABUFX4_83 [_1576_] _1576__bF$buf2 d_lut_BUFX4
ABUFX4_84 [_1576_] _1576__bF$buf1 d_lut_BUFX4
ABUFX4_85 [_1576_] _1576__bF$buf0 d_lut_BUFX4
ABUFX4_86 [wb_sel_i_3_] wb_sel_i_3_bF$buf6_ d_lut_BUFX4
ABUFX4_87 [wb_sel_i_3_] wb_sel_i_3_bF$buf5_ d_lut_BUFX4
ABUFX4_88 [wb_sel_i_3_] wb_sel_i_3_bF$buf4_ d_lut_BUFX4
ABUFX4_89 [wb_sel_i_3_] wb_sel_i_3_bF$buf3_ d_lut_BUFX4
ABUFX4_90 [wb_sel_i_3_] wb_sel_i_3_bF$buf2_ d_lut_BUFX4
ABUFX4_91 [wb_sel_i_3_] wb_sel_i_3_bF$buf1_ d_lut_BUFX4
ABUFX4_92 [wb_sel_i_3_] wb_sel_i_3_bF$buf0_ d_lut_BUFX4
ABUFX4_93 [_9_] _9__bF$buf6 d_lut_BUFX4
ABUFX4_94 [_9_] _9__bF$buf5 d_lut_BUFX4
ABUFX4_95 [_9_] _9__bF$buf4 d_lut_BUFX4
ABUFX4_96 [_9_] _9__bF$buf3 d_lut_BUFX4
ABUFX4_97 [_9_] _9__bF$buf2 d_lut_BUFX4
ABUFX4_98 [_9_] _9__bF$buf1 d_lut_BUFX4
ABUFX4_99 [_9_] _9__bF$buf0 d_lut_BUFX4
ABUFX4_100 [_12_] _12__bF$buf4 d_lut_BUFX4
ABUFX4_101 [_12_] _12__bF$buf3 d_lut_BUFX4
ABUFX4_102 [_12_] _12__bF$buf2 d_lut_BUFX4
ABUFX4_103 [_12_] _12__bF$buf1 d_lut_BUFX4
ABUFX4_104 [_12_] _12__bF$buf0 d_lut_BUFX4
ABUFX4_105 [wb_sel_i_0_] wb_sel_i_0_bF$buf7_ d_lut_BUFX4
ABUFX4_106 [wb_sel_i_0_] wb_sel_i_0_bF$buf6_ d_lut_BUFX4
ABUFX4_107 [wb_sel_i_0_] wb_sel_i_0_bF$buf5_ d_lut_BUFX4
ABUFX4_108 [wb_sel_i_0_] wb_sel_i_0_bF$buf4_ d_lut_BUFX4
ABUFX4_109 [wb_sel_i_0_] wb_sel_i_0_bF$buf3_ d_lut_BUFX4
ABUFX4_110 [wb_sel_i_0_] wb_sel_i_0_bF$buf2_ d_lut_BUFX4
ABUFX4_111 [wb_sel_i_0_] wb_sel_i_0_bF$buf1_ d_lut_BUFX4
ABUFX4_112 [wb_sel_i_0_] wb_sel_i_0_bF$buf0_ d_lut_BUFX4
ACLKBUF1_53 [wb_clk_i] wb_clk_i_bF$buf14 d_lut_CLKBUF1
ACLKBUF1_54 [wb_clk_i] wb_clk_i_bF$buf13 d_lut_CLKBUF1
ACLKBUF1_55 [wb_clk_i] wb_clk_i_bF$buf12 d_lut_CLKBUF1
ACLKBUF1_56 [wb_clk_i] wb_clk_i_bF$buf11 d_lut_CLKBUF1
ACLKBUF1_57 [wb_clk_i] wb_clk_i_bF$buf10 d_lut_CLKBUF1
ACLKBUF1_58 [wb_clk_i] wb_clk_i_bF$buf9 d_lut_CLKBUF1
ACLKBUF1_59 [wb_clk_i] wb_clk_i_bF$buf8 d_lut_CLKBUF1
ACLKBUF1_60 [wb_clk_i] wb_clk_i_bF$buf7 d_lut_CLKBUF1
ACLKBUF1_61 [wb_clk_i] wb_clk_i_bF$buf6 d_lut_CLKBUF1
ACLKBUF1_62 [wb_clk_i] wb_clk_i_bF$buf5 d_lut_CLKBUF1
ACLKBUF1_63 [wb_clk_i] wb_clk_i_bF$buf4 d_lut_CLKBUF1
ACLKBUF1_64 [wb_clk_i] wb_clk_i_bF$buf3 d_lut_CLKBUF1
ACLKBUF1_65 [wb_clk_i] wb_clk_i_bF$buf2 d_lut_CLKBUF1
ACLKBUF1_66 [wb_clk_i] wb_clk_i_bF$buf1 d_lut_CLKBUF1
ACLKBUF1_67 [wb_clk_i] wb_clk_i_bF$buf0 d_lut_CLKBUF1
ABUFX4_113 [_249_] _249__bF$buf4 d_lut_BUFX4
ABUFX4_114 [_249_] _249__bF$buf3 d_lut_BUFX4
ABUFX4_115 [_249_] _249__bF$buf2 d_lut_BUFX4
ABUFX4_116 [_249_] _249__bF$buf1 d_lut_BUFX4
ABUFX4_117 [_249_] _249__bF$buf0 d_lut_BUFX4
ABUFX4_118 [clgen.enable] clgen.enable_bF$buf9 d_lut_BUFX4
ABUFX4_119 [clgen.enable] clgen.enable_bF$buf8 d_lut_BUFX4
ABUFX4_120 [clgen.enable] clgen.enable_bF$buf7 d_lut_BUFX4
ABUFX4_121 [clgen.enable] clgen.enable_bF$buf6 d_lut_BUFX4
ABUFX4_122 [clgen.enable] clgen.enable_bF$buf5 d_lut_BUFX4
ABUFX4_123 [clgen.enable] clgen.enable_bF$buf4 d_lut_BUFX4
ABUFX4_124 [clgen.enable] clgen.enable_bF$buf3 d_lut_BUFX4
ABUFX4_125 [clgen.enable] clgen.enable_bF$buf2 d_lut_BUFX4
ABUFX4_126 [clgen.enable] clgen.enable_bF$buf1 d_lut_BUFX4
ABUFX4_127 [clgen.enable] clgen.enable_bF$buf0 d_lut_BUFX4
ABUFX4_128 [_190_] _190__bF$buf3 d_lut_BUFX4
ABUFX4_129 [_190_] _190__bF$buf2 d_lut_BUFX4
ABUFX4_130 [_190_] _190__bF$buf1 d_lut_BUFX4
ABUFX4_131 [_190_] _190__bF$buf0 d_lut_BUFX4
ABUFX4_132 [_243_] _243__bF$buf3 d_lut_BUFX4
ABUFX4_133 [_243_] _243__bF$buf2 d_lut_BUFX4
ABUFX4_134 [_243_] _243__bF$buf1 d_lut_BUFX4
ABUFX4_135 [_243_] _243__bF$buf0 d_lut_BUFX4
ABUFX4_136 [_1561_] _1561__bF$buf6 d_lut_BUFX4
ABUFX4_137 [_1561_] _1561__bF$buf5 d_lut_BUFX4
ABUFX4_138 [_1561_] _1561__bF$buf4 d_lut_BUFX4
ABUFX4_139 [_1561_] _1561__bF$buf3 d_lut_BUFX4
ABUFX4_140 [_1561_] _1561__bF$buf2 d_lut_BUFX4
ABUFX4_141 [_1561_] _1561__bF$buf1 d_lut_BUFX4
ABUFX4_142 [_1561_] _1561__bF$buf0 d_lut_BUFX4
ABUFX4_143 [_789_] _789__bF$buf3 d_lut_BUFX4
ABUFX4_144 [_789_] _789__bF$buf2 d_lut_BUFX4
ABUFX4_145 [_789_] _789__bF$buf1 d_lut_BUFX4
ABUFX4_146 [_789_] _789__bF$buf0 d_lut_BUFX4
ABUFX4_147 [_1073_] _1073__bF$buf4 d_lut_BUFX4
ABUFX4_148 [_1073_] _1073__bF$buf3 d_lut_BUFX4
ABUFX4_149 [_1073_] _1073__bF$buf2 d_lut_BUFX4
ABUFX4_150 [_1073_] _1073__bF$buf1 d_lut_BUFX4
ABUFX4_151 [_1073_] _1073__bF$buf0 d_lut_BUFX4
ABUFX4_152 [_686_] _686__bF$buf8 d_lut_BUFX4
ABUFX4_153 [_686_] _686__bF$buf7 d_lut_BUFX4
ABUFX4_154 [_686_] _686__bF$buf6 d_lut_BUFX4
ABUFX4_155 [_686_] _686__bF$buf5 d_lut_BUFX4
ABUFX4_156 [_686_] _686__bF$buf4 d_lut_BUFX4
ABUFX4_157 [_686_] _686__bF$buf3 d_lut_BUFX4
ABUFX4_158 [_686_] _686__bF$buf2 d_lut_BUFX4
ABUFX4_159 [_686_] _686__bF$buf1 d_lut_BUFX4
ABUFX4_160 [_686_] _686__bF$buf0 d_lut_BUFX4
ABUFX4_161 [_1067_] _1067__bF$buf6 d_lut_BUFX4
ABUFX4_162 [_1067_] _1067__bF$buf5 d_lut_BUFX4
ABUFX4_163 [_1067_] _1067__bF$buf4 d_lut_BUFX4
ABUFX4_164 [_1067_] _1067__bF$buf3 d_lut_BUFX4
ABUFX4_165 [_1067_] _1067__bF$buf2 d_lut_BUFX4
ABUFX4_166 [_1067_] _1067__bF$buf1 d_lut_BUFX4
ABUFX4_167 [_1067_] _1067__bF$buf0 d_lut_BUFX4
ABUFX4_168 [_2081_] _2081__bF$buf3 d_lut_BUFX4
ABUFX4_169 [_2081_] _2081__bF$buf2 d_lut_BUFX4
ABUFX4_170 [_2081_] _2081__bF$buf1 d_lut_BUFX4
ABUFX4_171 [_2081_] _2081__bF$buf0 d_lut_BUFX4
ABUFX4_172 [_2078_] _2078__bF$buf7 d_lut_BUFX4
ABUFX4_173 [_2078_] _2078__bF$buf6 d_lut_BUFX4
ABUFX4_174 [_2078_] _2078__bF$buf5 d_lut_BUFX4
ABUFX4_175 [_2078_] _2078__bF$buf4 d_lut_BUFX4
ABUFX4_176 [_2078_] _2078__bF$buf3 d_lut_BUFX4
ABUFX4_177 [_2078_] _2078__bF$buf2 d_lut_BUFX4
ABUFX4_178 [_2078_] _2078__bF$buf1 d_lut_BUFX4
ABUFX4_179 [_2078_] _2078__bF$buf0 d_lut_BUFX4
ABUFX4_180 [_1502_] _1502__bF$buf3 d_lut_BUFX4
ABUFX4_181 [_1502_] _1502__bF$buf2 d_lut_BUFX4
ABUFX4_182 [_1502_] _1502__bF$buf1 d_lut_BUFX4
ABUFX4_183 [_1502_] _1502__bF$buf0 d_lut_BUFX4
ABUFX4_184 [wb_sel_i_2_] wb_sel_i_2_bF$buf6_ d_lut_BUFX4
ABUFX4_185 [wb_sel_i_2_] wb_sel_i_2_bF$buf5_ d_lut_BUFX4
ABUFX4_186 [wb_sel_i_2_] wb_sel_i_2_bF$buf4_ d_lut_BUFX4
ABUFX4_187 [wb_sel_i_2_] wb_sel_i_2_bF$buf3_ d_lut_BUFX4
ABUFX4_188 [wb_sel_i_2_] wb_sel_i_2_bF$buf2_ d_lut_BUFX4
ABUFX4_189 [wb_sel_i_2_] wb_sel_i_2_bF$buf1_ d_lut_BUFX4
ABUFX4_190 [wb_sel_i_2_] wb_sel_i_2_bF$buf0_ d_lut_BUFX4
ABUFX4_191 [_8_] _8__bF$buf3 d_lut_BUFX4
ABUFX4_192 [_8_] _8__bF$buf2 d_lut_BUFX4
ABUFX4_193 [_8_] _8__bF$buf1 d_lut_BUFX4
ABUFX4_194 [_8_] _8__bF$buf0 d_lut_BUFX4
ABUFX4_195 [_11_] _11__bF$buf7 d_lut_BUFX4
ABUFX4_196 [_11_] _11__bF$buf6 d_lut_BUFX4
ABUFX4_197 [_11_] _11__bF$buf5 d_lut_BUFX4
ABUFX4_198 [_11_] _11__bF$buf4 d_lut_BUFX4
ABUFX4_199 [_11_] _11__bF$buf3 d_lut_BUFX4
ABUFX4_200 [_11_] _11__bF$buf2 d_lut_BUFX4
ABUFX4_201 [_11_] _11__bF$buf1 d_lut_BUFX4
ABUFX4_202 [_11_] _11__bF$buf0 d_lut_BUFX4
ABUFX4_203 [_1569_] _1569__bF$buf4 d_lut_BUFX4
ABUFX4_204 [_1569_] _1569__bF$buf3 d_lut_BUFX4
ABUFX4_205 [_1569_] _1569__bF$buf2 d_lut_BUFX4
ABUFX4_206 [_1569_] _1569__bF$buf1 d_lut_BUFX4
ABUFX4_207 [_1569_] _1569__bF$buf0 d_lut_BUFX4
ABUFX4_208 [_5_] _5__bF$buf8 d_lut_BUFX4
ABUFX4_209 [_5_] _5__bF$buf7 d_lut_BUFX4
ABUFX4_210 [_5_] _5__bF$buf6 d_lut_BUFX4
ABUFX4_211 [_5_] _5__bF$buf5 d_lut_BUFX4
ABUFX4_212 [_5_] _5__bF$buf4 d_lut_BUFX4
ABUFX4_213 [_5_] _5__bF$buf3 d_lut_BUFX4
ABUFX4_214 [_5_] _5__bF$buf2 d_lut_BUFX4
ABUFX4_215 [_5_] _5__bF$buf1 d_lut_BUFX4
ABUFX4_216 [_5_] _5__bF$buf0 d_lut_BUFX4
ABUFX4_217 [_189_] _189__bF$buf3 d_lut_BUFX4
ABUFX4_218 [_189_] _189__bF$buf2 d_lut_BUFX4
ABUFX4_219 [_189_] _189__bF$buf1 d_lut_BUFX4
ABUFX4_220 [_189_] _189__bF$buf0 d_lut_BUFX4
ABUFX4_221 [_2025_] _2025__bF$buf7 d_lut_BUFX4
ABUFX4_222 [_2025_] _2025__bF$buf6 d_lut_BUFX4
ABUFX4_223 [_2025_] _2025__bF$buf5 d_lut_BUFX4
ABUFX4_224 [_2025_] _2025__bF$buf4 d_lut_BUFX4
ABUFX4_225 [_2025_] _2025__bF$buf3 d_lut_BUFX4
ABUFX4_226 [_2025_] _2025__bF$buf2 d_lut_BUFX4
ABUFX4_227 [_2025_] _2025__bF$buf1 d_lut_BUFX4
ABUFX4_228 [_2025_] _2025__bF$buf0 d_lut_BUFX4
ABUFX4_229 [_912_] _912__bF$buf5 d_lut_BUFX4
ABUFX4_230 [_912_] _912__bF$buf4 d_lut_BUFX4
ABUFX4_231 [_912_] _912__bF$buf3 d_lut_BUFX4
ABUFX4_232 [_912_] _912__bF$buf2 d_lut_BUFX4
ABUFX4_233 [_912_] _912__bF$buf1 d_lut_BUFX4
ABUFX4_234 [_912_] _912__bF$buf0 d_lut_BUFX4
ABUFX4_235 [_433_] _433__bF$buf3 d_lut_BUFX4
ABUFX4_236 [_433_] _433__bF$buf2 d_lut_BUFX4
ABUFX4_237 [_433_] _433__bF$buf1 d_lut_BUFX4
ABUFX4_238 [_433_] _433__bF$buf0 d_lut_BUFX4
ABUFX4_239 [_242_] _242__bF$buf3 d_lut_BUFX4
ABUFX4_240 [_242_] _242__bF$buf2 d_lut_BUFX4
ABUFX4_241 [_242_] _242__bF$buf1 d_lut_BUFX4
ABUFX4_242 [_242_] _242__bF$buf0 d_lut_BUFX4
ABUFX4_243 [_694_] _694__bF$buf7 d_lut_BUFX4
ABUFX4_244 [_694_] _694__bF$buf6 d_lut_BUFX4
ABUFX4_245 [_694_] _694__bF$buf5 d_lut_BUFX4
ABUFX4_246 [_694_] _694__bF$buf4 d_lut_BUFX4
ABUFX4_247 [_694_] _694__bF$buf3 d_lut_BUFX4
ABUFX4_248 [_694_] _694__bF$buf2 d_lut_BUFX4
ABUFX4_249 [_694_] _694__bF$buf1 d_lut_BUFX4
ABUFX4_250 [_694_] _694__bF$buf0 d_lut_BUFX4
ABUFX4_251 [_788_] _788__bF$buf4 d_lut_BUFX4
ABUFX4_252 [_788_] _788__bF$buf3 d_lut_BUFX4
ABUFX4_253 [_788_] _788__bF$buf2 d_lut_BUFX4
ABUFX4_254 [_788_] _788__bF$buf1 d_lut_BUFX4
ABUFX4_255 [_788_] _788__bF$buf0 d_lut_BUFX4
ABUFX4_256 [_1072_] _1072__bF$buf4 d_lut_BUFX4
ABUFX4_257 [_1072_] _1072__bF$buf3 d_lut_BUFX4
ABUFX4_258 [_1072_] _1072__bF$buf2 d_lut_BUFX4
ABUFX4_259 [_1072_] _1072__bF$buf1 d_lut_BUFX4
ABUFX4_260 [_1072_] _1072__bF$buf0 d_lut_BUFX4
ABUFX4_261 [_688_] _688__bF$buf7 d_lut_BUFX4
ABUFX4_262 [_688_] _688__bF$buf6 d_lut_BUFX4
ABUFX4_263 [_688_] _688__bF$buf5 d_lut_BUFX4
ABUFX4_264 [_688_] _688__bF$buf4 d_lut_BUFX4
ABUFX4_265 [_688_] _688__bF$buf3 d_lut_BUFX4
ABUFX4_266 [_688_] _688__bF$buf2 d_lut_BUFX4
ABUFX4_267 [_688_] _688__bF$buf1 d_lut_BUFX4
ABUFX4_268 [_688_] _688__bF$buf0 d_lut_BUFX4
ABUFX4_269 [lsb] lsb_bF$buf3 d_lut_BUFX4
ABUFX4_270 [lsb] lsb_bF$buf2 d_lut_BUFX4
ABUFX4_271 [lsb] lsb_bF$buf1 d_lut_BUFX4
ABUFX4_272 [lsb] lsb_bF$buf0 d_lut_BUFX4
ABUFX4_273 [_685_] _685__bF$buf4 d_lut_BUFX4
ABUFX4_274 [_685_] _685__bF$buf3 d_lut_BUFX4
ABUFX4_275 [_685_] _685__bF$buf2 d_lut_BUFX4
ABUFX4_276 [_685_] _685__bF$buf1 d_lut_BUFX4
ABUFX4_277 [_685_] _685__bF$buf0 d_lut_BUFX4
AINVX1_1 [ss_24_] _6_ d_lut_INVX1
AINVX2_1 [wb_adr_i_2_] _7_ d_lut_INVX2
ANAND3X1_1 [wb_adr_i_4_ wb_adr_i_3_ _7_] _8_ d_lut_NAND3X1
AINVX8_1 [_8__bF$buf3] _9_ d_lut_INVX8
ANAND3X1_2 [wb_we_i wb_stb_i wb_cyc_i] _10_ d_lut_NAND3X1
ANOR2X1_1 [clgen.enable_bF$buf9 _10_] _11_ d_lut_NOR2X1
AAND2X2_1 [_9__bF$buf6 _11__bF$buf7] _12_ d_lut_AND2X2
ANAND2X1_1 [wb_dat_i_24_ wb_sel_i_3_bF$buf6_] _13_ d_lut_NAND2X1
AOAI21X1_1 [_6_ wb_sel_i_3_bF$buf5_ _13_] _14_ d_lut_OAI21X1
ANAND3X1_3 [_11__bF$buf6 _14_ _9__bF$buf5] _15_ d_lut_NAND3X1
AOAI21X1_2 [_12__bF$buf4 _6_ _15_] _2__24_ d_lut_OAI21X1
AINVX1_2 [ss_25_] _16_ d_lut_INVX1
ANAND2X1_2 [wb_sel_i_3_bF$buf4_ wb_dat_i_25_] _17_ d_lut_NAND2X1
AOAI21X1_3 [_16_ wb_sel_i_3_bF$buf3_ _17_] _18_ d_lut_OAI21X1
ANAND3X1_4 [_11__bF$buf5 _18_ _9__bF$buf4] _19_ d_lut_NAND3X1
AOAI21X1_4 [_12__bF$buf3 _16_ _19_] _2__25_ d_lut_OAI21X1
AINVX1_3 [ss_26_] _20_ d_lut_INVX1
ANAND2X1_3 [wb_sel_i_3_bF$buf2_ wb_dat_i_26_] _21_ d_lut_NAND2X1
AOAI21X1_5 [_20_ wb_sel_i_3_bF$buf1_ _21_] _22_ d_lut_OAI21X1
ANAND3X1_5 [_11__bF$buf4 _22_ _9__bF$buf3] _23_ d_lut_NAND3X1
AOAI21X1_6 [_12__bF$buf2 _20_ _23_] _2__26_ d_lut_OAI21X1
AINVX1_4 [ss_27_] _24_ d_lut_INVX1
ANAND2X1_4 [wb_sel_i_3_bF$buf0_ wb_dat_i_27_] _25_ d_lut_NAND2X1
AOAI21X1_7 [_24_ wb_sel_i_3_bF$buf6_ _25_] _26_ d_lut_OAI21X1
ANAND3X1_6 [_11__bF$buf3 _26_ _9__bF$buf2] _27_ d_lut_NAND3X1
AOAI21X1_8 [_12__bF$buf1 _24_ _27_] _2__27_ d_lut_OAI21X1
AINVX1_5 [ss_28_] _28_ d_lut_INVX1
ANAND2X1_5 [wb_sel_i_3_bF$buf5_ wb_dat_i_28_] _29_ d_lut_NAND2X1
AOAI21X1_9 [_28_ wb_sel_i_3_bF$buf4_ _29_] _30_ d_lut_OAI21X1
ANAND3X1_7 [_11__bF$buf2 _30_ _9__bF$buf1] _31_ d_lut_NAND3X1
AOAI21X1_10 [_12__bF$buf0 _28_ _31_] _2__28_ d_lut_OAI21X1
AINVX1_6 [ss_29_] _32_ d_lut_INVX1
ANAND2X1_6 [wb_sel_i_3_bF$buf3_ wb_dat_i_29_] _33_ d_lut_NAND2X1
AOAI21X1_11 [_32_ wb_sel_i_3_bF$buf2_ _33_] _34_ d_lut_OAI21X1
ANAND3X1_8 [_11__bF$buf1 _34_ _9__bF$buf0] _35_ d_lut_NAND3X1
AOAI21X1_12 [_12__bF$buf4 _32_ _35_] _2__29_ d_lut_OAI21X1
AINVX1_7 [ss_30_] _36_ d_lut_INVX1
ANAND2X1_7 [wb_sel_i_3_bF$buf1_ wb_dat_i_30_] _37_ d_lut_NAND2X1
AOAI21X1_13 [_36_ wb_sel_i_3_bF$buf0_ _37_] _38_ d_lut_OAI21X1
ANAND3X1_9 [_11__bF$buf0 _38_ _9__bF$buf6] _39_ d_lut_NAND3X1
AOAI21X1_14 [_12__bF$buf3 _36_ _39_] _2__30_ d_lut_OAI21X1
AINVX1_8 [ss_31_] _40_ d_lut_INVX1
ANAND2X1_8 [wb_sel_i_3_bF$buf6_ wb_dat_i_31_] _41_ d_lut_NAND2X1
AOAI21X1_15 [_40_ wb_sel_i_3_bF$buf5_ _41_] _42_ d_lut_OAI21X1
ANAND3X1_10 [_11__bF$buf7 _42_ _9__bF$buf5] _43_ d_lut_NAND3X1
AOAI21X1_16 [_12__bF$buf2 _40_ _43_] _2__31_ d_lut_OAI21X1
AINVX1_9 [ss_16_] _44_ d_lut_INVX1
ANAND2X1_9 [wb_dat_i_16_ wb_sel_i_2_bF$buf6_] _45_ d_lut_NAND2X1
AOAI21X1_17 [_44_ wb_sel_i_2_bF$buf5_ _45_] _46_ d_lut_OAI21X1
ANAND3X1_11 [_11__bF$buf6 _46_ _9__bF$buf4] _47_ d_lut_NAND3X1
AOAI21X1_18 [_12__bF$buf1 _44_ _47_] _2__16_ d_lut_OAI21X1
AINVX1_10 [ss_17_] _48_ d_lut_INVX1
ANAND2X1_10 [wb_sel_i_2_bF$buf4_ wb_dat_i_17_] _49_ d_lut_NAND2X1
AOAI21X1_19 [_48_ wb_sel_i_2_bF$buf3_ _49_] _50_ d_lut_OAI21X1
ANAND3X1_12 [_11__bF$buf5 _50_ _9__bF$buf3] _51_ d_lut_NAND3X1
AOAI21X1_20 [_12__bF$buf0 _48_ _51_] _2__17_ d_lut_OAI21X1
AINVX1_11 [ss_18_] _52_ d_lut_INVX1
ANAND2X1_11 [wb_sel_i_2_bF$buf2_ wb_dat_i_18_] _53_ d_lut_NAND2X1
AOAI21X1_21 [_52_ wb_sel_i_2_bF$buf1_ _53_] _54_ d_lut_OAI21X1
ANAND3X1_13 [_11__bF$buf4 _54_ _9__bF$buf2] _55_ d_lut_NAND3X1
AOAI21X1_22 [_12__bF$buf4 _52_ _55_] _2__18_ d_lut_OAI21X1
AINVX1_12 [ss_19_] _56_ d_lut_INVX1
ANAND2X1_12 [wb_sel_i_2_bF$buf0_ wb_dat_i_19_] _57_ d_lut_NAND2X1
AOAI21X1_23 [_56_ wb_sel_i_2_bF$buf6_ _57_] _58_ d_lut_OAI21X1
ANAND3X1_14 [_11__bF$buf3 _58_ _9__bF$buf1] _59_ d_lut_NAND3X1
AOAI21X1_24 [_12__bF$buf3 _56_ _59_] _2__19_ d_lut_OAI21X1
AINVX1_13 [ss_20_] _60_ d_lut_INVX1
ANAND2X1_13 [wb_sel_i_2_bF$buf5_ wb_dat_i_20_] _61_ d_lut_NAND2X1
AOAI21X1_25 [_60_ wb_sel_i_2_bF$buf4_ _61_] _62_ d_lut_OAI21X1
ANAND3X1_15 [_11__bF$buf2 _62_ _9__bF$buf0] _63_ d_lut_NAND3X1
AOAI21X1_26 [_12__bF$buf2 _60_ _63_] _2__20_ d_lut_OAI21X1
AINVX1_14 [ss_21_] _64_ d_lut_INVX1
ANAND2X1_14 [wb_sel_i_2_bF$buf3_ wb_dat_i_21_] _65_ d_lut_NAND2X1
AOAI21X1_27 [_64_ wb_sel_i_2_bF$buf2_ _65_] _66_ d_lut_OAI21X1
ANAND3X1_16 [_11__bF$buf1 _66_ _9__bF$buf6] _67_ d_lut_NAND3X1
AOAI21X1_28 [_12__bF$buf1 _64_ _67_] _2__21_ d_lut_OAI21X1
AINVX1_15 [ss_22_] _68_ d_lut_INVX1
ANAND2X1_15 [wb_sel_i_2_bF$buf1_ wb_dat_i_22_] _69_ d_lut_NAND2X1
AOAI21X1_29 [_68_ wb_sel_i_2_bF$buf0_ _69_] _70_ d_lut_OAI21X1
ANAND3X1_17 [_11__bF$buf0 _70_ _9__bF$buf5] _71_ d_lut_NAND3X1
AOAI21X1_30 [_12__bF$buf0 _68_ _71_] _2__22_ d_lut_OAI21X1
AINVX1_16 [ss_23_] _72_ d_lut_INVX1
ANAND2X1_16 [wb_sel_i_2_bF$buf6_ wb_dat_i_23_] _73_ d_lut_NAND2X1
AOAI21X1_31 [_72_ wb_sel_i_2_bF$buf5_ _73_] _74_ d_lut_OAI21X1
ANAND3X1_18 [_11__bF$buf7 _74_ _9__bF$buf4] _75_ d_lut_NAND3X1
AOAI21X1_32 [_12__bF$buf4 _72_ _75_] _2__23_ d_lut_OAI21X1
AINVX2_2 [ss_8_] _76_ d_lut_INVX2
ANAND2X1_17 [wb_dat_i_8_ wb_sel_i_1_bF$buf7_] _77_ d_lut_NAND2X1
AOAI21X1_33 [_76_ wb_sel_i_1_bF$buf6_ _77_] _78_ d_lut_OAI21X1
ANAND3X1_19 [_11__bF$buf6 _78_ _9__bF$buf3] _79_ d_lut_NAND3X1
AOAI21X1_34 [_12__bF$buf3 _76_ _79_] _2__8_ d_lut_OAI21X1
AINVX2_3 [ss_9_] _80_ d_lut_INVX2
ANAND2X1_18 [wb_sel_i_1_bF$buf5_ wb_dat_i_9_] _81_ d_lut_NAND2X1
AOAI21X1_35 [_80_ wb_sel_i_1_bF$buf4_ _81_] _82_ d_lut_OAI21X1
ANAND3X1_20 [_11__bF$buf5 _82_ _9__bF$buf2] _83_ d_lut_NAND3X1
AOAI21X1_36 [_12__bF$buf2 _80_ _83_] _2__9_ d_lut_OAI21X1
AINVX2_4 [ss_10_] _84_ d_lut_INVX2
ANAND2X1_19 [wb_sel_i_1_bF$buf3_ wb_dat_i_10_] _85_ d_lut_NAND2X1
AOAI21X1_37 [_84_ wb_sel_i_1_bF$buf2_ _85_] _86_ d_lut_OAI21X1
ANAND3X1_21 [_11__bF$buf4 _86_ _9__bF$buf1] _87_ d_lut_NAND3X1
AOAI21X1_38 [_12__bF$buf1 _84_ _87_] _2__10_ d_lut_OAI21X1
AINVX2_5 [ss_11_] _88_ d_lut_INVX2
ANAND2X1_20 [wb_sel_i_1_bF$buf1_ wb_dat_i_11_] _89_ d_lut_NAND2X1
AOAI21X1_39 [_88_ wb_sel_i_1_bF$buf0_ _89_] _90_ d_lut_OAI21X1
ANAND3X1_22 [_11__bF$buf3 _90_ _9__bF$buf0] _91_ d_lut_NAND3X1
AOAI21X1_40 [_12__bF$buf0 _88_ _91_] _2__11_ d_lut_OAI21X1
AINVX2_6 [ss_12_] _92_ d_lut_INVX2
ANAND2X1_21 [wb_sel_i_1_bF$buf7_ wb_dat_i_12_] _93_ d_lut_NAND2X1
AOAI21X1_41 [_92_ wb_sel_i_1_bF$buf6_ _93_] _94_ d_lut_OAI21X1
ANAND3X1_23 [_11__bF$buf2 _94_ _9__bF$buf6] _95_ d_lut_NAND3X1
AOAI21X1_42 [_12__bF$buf4 _92_ _95_] _2__12_ d_lut_OAI21X1
AINVX2_7 [ss_13_] _96_ d_lut_INVX2
ANAND2X1_22 [wb_sel_i_1_bF$buf5_ wb_dat_i_13_] _97_ d_lut_NAND2X1
AOAI21X1_43 [_96_ wb_sel_i_1_bF$buf4_ _97_] _98_ d_lut_OAI21X1
ANAND3X1_24 [_11__bF$buf1 _98_ _9__bF$buf5] _99_ d_lut_NAND3X1
AOAI21X1_44 [_12__bF$buf3 _96_ _99_] _2__13_ d_lut_OAI21X1
AINVX2_8 [ss_14_] _100_ d_lut_INVX2
ANAND2X1_23 [wb_sel_i_1_bF$buf3_ wb_dat_i_14_] _101_ d_lut_NAND2X1
AOAI21X1_45 [_100_ wb_sel_i_1_bF$buf2_ _101_] _102_ d_lut_OAI21X1
ANAND3X1_25 [_11__bF$buf0 _102_ _9__bF$buf4] _103_ d_lut_NAND3X1
AOAI21X1_46 [_12__bF$buf2 _100_ _103_] _2__14_ d_lut_OAI21X1
AINVX2_9 [ss_15_] _104_ d_lut_INVX2
ANAND2X1_24 [wb_sel_i_1_bF$buf1_ wb_dat_i_15_] _105_ d_lut_NAND2X1
AOAI21X1_47 [_104_ wb_sel_i_1_bF$buf0_ _105_] _106_ d_lut_OAI21X1
ANAND3X1_26 [_11__bF$buf7 _106_ _9__bF$buf3] _107_ d_lut_NAND3X1
AOAI21X1_48 [_12__bF$buf1 _104_ _107_] _2__15_ d_lut_OAI21X1
AINVX2_10 [ss_0_] _108_ d_lut_INVX2
ANAND2X1_25 [wb_dat_i_0_ wb_sel_i_0_bF$buf7_] _109_ d_lut_NAND2X1
AOAI21X1_49 [_108_ wb_sel_i_0_bF$buf6_ _109_] _110_ d_lut_OAI21X1
ANAND3X1_27 [_11__bF$buf6 _110_ _9__bF$buf2] _111_ d_lut_NAND3X1
AOAI21X1_50 [_12__bF$buf0 _108_ _111_] _2__0_ d_lut_OAI21X1
AINVX2_11 [ss_1_] _112_ d_lut_INVX2
ANAND2X1_26 [wb_sel_i_0_bF$buf5_ wb_dat_i_1_] _113_ d_lut_NAND2X1
AOAI21X1_51 [_112_ wb_sel_i_0_bF$buf4_ _113_] _114_ d_lut_OAI21X1
ANAND3X1_28 [_11__bF$buf5 _114_ _9__bF$buf1] _115_ d_lut_NAND3X1
AOAI21X1_52 [_12__bF$buf4 _112_ _115_] _2__1_ d_lut_OAI21X1
AINVX2_12 [ss_2_] _116_ d_lut_INVX2
ANAND2X1_27 [wb_sel_i_0_bF$buf3_ wb_dat_i_2_] _117_ d_lut_NAND2X1
AOAI21X1_53 [_116_ wb_sel_i_0_bF$buf2_ _117_] _118_ d_lut_OAI21X1
ANAND3X1_29 [_11__bF$buf4 _118_ _9__bF$buf0] _119_ d_lut_NAND3X1
AOAI21X1_54 [_12__bF$buf3 _116_ _119_] _2__2_ d_lut_OAI21X1
AINVX2_13 [ss_3_] _120_ d_lut_INVX2
ANAND2X1_28 [wb_sel_i_0_bF$buf1_ wb_dat_i_3_] _121_ d_lut_NAND2X1
AOAI21X1_55 [_120_ wb_sel_i_0_bF$buf0_ _121_] _122_ d_lut_OAI21X1
ANAND3X1_30 [_11__bF$buf3 _122_ _9__bF$buf6] _123_ d_lut_NAND3X1
AOAI21X1_56 [_12__bF$buf2 _120_ _123_] _2__3_ d_lut_OAI21X1
AINVX2_14 [ss_4_] _124_ d_lut_INVX2
ANAND2X1_29 [wb_sel_i_0_bF$buf7_ wb_dat_i_4_] _125_ d_lut_NAND2X1
AOAI21X1_57 [_124_ wb_sel_i_0_bF$buf6_ _125_] _126_ d_lut_OAI21X1
ANAND3X1_31 [_11__bF$buf2 _126_ _9__bF$buf5] _127_ d_lut_NAND3X1
AOAI21X1_58 [_12__bF$buf1 _124_ _127_] _2__4_ d_lut_OAI21X1
AINVX2_15 [ss_5_] _128_ d_lut_INVX2
ANAND2X1_30 [wb_sel_i_0_bF$buf5_ wb_dat_i_5_] _129_ d_lut_NAND2X1
AOAI21X1_59 [_128_ wb_sel_i_0_bF$buf4_ _129_] _130_ d_lut_OAI21X1
ANAND3X1_32 [_11__bF$buf1 _130_ _9__bF$buf4] _131_ d_lut_NAND3X1
AOAI21X1_60 [_12__bF$buf0 _128_ _131_] _2__5_ d_lut_OAI21X1
AINVX2_16 [ss_6_] _132_ d_lut_INVX2
ANAND2X1_31 [wb_sel_i_0_bF$buf3_ wb_dat_i_6_] _133_ d_lut_NAND2X1
AOAI21X1_61 [_132_ wb_sel_i_0_bF$buf2_ _133_] _134_ d_lut_OAI21X1
ANAND3X1_33 [_11__bF$buf0 _134_ _9__bF$buf3] _135_ d_lut_NAND3X1
AOAI21X1_62 [_12__bF$buf4 _132_ _135_] _2__6_ d_lut_OAI21X1
AINVX2_17 [ss_7_] _136_ d_lut_INVX2
ANAND2X1_32 [wb_sel_i_0_bF$buf1_ wb_dat_i_7_] _137_ d_lut_NAND2X1
AOAI21X1_63 [_136_ wb_sel_i_0_bF$buf0_ _137_] _138_ d_lut_OAI21X1
ANAND3X1_34 [_11__bF$buf7 _138_ _9__bF$buf2] _139_ d_lut_NAND3X1
AOAI21X1_64 [_12__bF$buf3 _136_ _139_] _2__7_ d_lut_OAI21X1
AINVX2_18 [rx_negedge] _140_ d_lut_INVX2
AINVX2_19 [wb_adr_i_3_] _141_ d_lut_INVX2
ANAND3X1_35 [wb_adr_i_4_ _7_ _141_] _142_ d_lut_NAND3X1
AINVX8_2 [_142_] _143_ d_lut_INVX8
AAND2X2_2 [_143_ _11__bF$buf6] _144_ d_lut_AND2X2
AOAI21X1_65 [_140_ wb_sel_i_1_bF$buf7_ _81_] _145_ d_lut_OAI21X1
ANAND3X1_36 [_145_ _11__bF$buf5 _143_] _146_ d_lut_NAND3X1
AOAI21X1_66 [_144_ _140_ _146_] _0__9_ d_lut_OAI21X1
AINVX2_20 [shift.tx_negedge] _147_ d_lut_INVX2
AOAI21X1_67 [_147_ wb_sel_i_1_bF$buf6_ _85_] _148_ d_lut_OAI21X1
ANAND3X1_37 [_148_ _11__bF$buf4 _143_] _149_ d_lut_NAND3X1
AOAI21X1_68 [_144_ _147_ _149_] _0__10_ d_lut_OAI21X1
AINVX2_21 [lsb_bF$buf3] _150_ d_lut_INVX2
AOAI21X1_69 [_150_ wb_sel_i_1_bF$buf5_ _89_] _151_ d_lut_OAI21X1
ANAND3X1_38 [_151_ _11__bF$buf3 _143_] _152_ d_lut_NAND3X1
AOAI21X1_70 [_144_ _150_ _152_] _0__11_ d_lut_OAI21X1
AINVX2_22 [ie] _153_ d_lut_INVX2
AOAI21X1_71 [_153_ wb_sel_i_1_bF$buf4_ _93_] _154_ d_lut_OAI21X1
ANAND3X1_39 [_154_ _11__bF$buf2 _143_] _155_ d_lut_NAND3X1
AOAI21X1_72 [_144_ _153_ _155_] _0__12_ d_lut_OAI21X1
AINVX8_3 [ass] _156_ d_lut_INVX8
AOAI21X1_73 [_156__bF$buf4 wb_sel_i_1_bF$buf3_ _97_] _157_ d_lut_OAI21X1
ANAND3X1_40 [_157_ _11__bF$buf1 _143_] _158_ d_lut_NAND3X1