*SPEF "IEEE 1481.1999"
*DESIGN "spi_top"
*DATE "12:25:21 Monday June 30, 2025"
*VENDOR "unknown"
*PROGRAM "qrouter"
*VERSION "unknown"
*DESIGN_FLOW "qflow"
*DIVIDER /
*DELIMITER :
*BUS_DELIMITER <>
*T_UNIT 1 PS
*C_UNIT 1 FF
*R_UNIT 1 OHM
*L_UNIT 1 HENRY

*NAME_MAP
*1 wb_clk_i_bF_buf1
*2 CLKBUF1_66
*3 DFFSR_15
*4 CLKBUF1_11
*5 CLKBUF1_35
*6 CLKBUF1_6
*7 DFFSR_134
*8 DFFSR_165
*9 CLKBUF1_15
*10 DFFSR_120
*11 CLKBUF1_24
*12 DFFSR_164
*13 DFFSR_150
*14 CLKBUF1_19
*15 DFFSR_135
*16 DFFSR_179
*17 DFFSR_119
*18 CLKBUF1_31
*19 wb_clk_i_bF_buf0
*20 CLKBUF1_67
*21 CLKBUF1_47
*22 CLKBUF1_3
*23 DFFSR_60
*24 CLKBUF1_43
*25 CLKBUF1_13
*26 DFFSR_90
*27 CLKBUF1_22
*28 CLKBUF1_51
*29 DFFSR_59
*30 DFFSR_45
*31 CLKBUF1_39
*32 DFFSR_29
*33 CLKBUF1_25
*34 CLKBUF1_12
*35 DFFSR_44
*36 DFFSR_74
*37 _191_
*38 AND2X2_3
*39 OAI21X1_112
*40 OAI21X1_124
*41 OAI21X1_122
*42 OAI21X1_102
*43 OAI21X1_120
*44 OAI21X1_116
*45 OAI21X1_94
*46 OAI21X1_110
*47 OAI21X1_104
*48 OAI21X1_108
*49 OAI21X1_100
*50 OAI21X1_98
*51 OAI21X1_96
*52 OAI21X1_114
*53 OAI21X1_118
*54 OAI21X1_106
*55 _251_
*56 NAND3X1_71
*57 OAI22X1_24
*58 OAI22X1_21
*59 INVX8_5
*60 OAI22X1_33
*61 OAI22X1_12
*62 NOR2X1_20
*63 OAI22X1_27
*64 OAI22X1_42
*65 OAI22X1_6
*66 OAI22X1_18
*67 OAI22X1_3
*68 OAI22X1_36
*69 OAI22X1_30
*70 OAI22X1_39
*71 OAI22X1_9
*72 OAI22X1_15
*73 _372_
*74 INVX8_6
*75 AOI22X1_31
*76 AOI22X1_21
*77 AOI22X1_17
*78 AOI22X1_27
*79 AOI22X1_23
*80 AOI22X1_19
*81 AOI22X1_25
*82 AOI22X1_11
*83 AOI22X1_7
*84 AOI22X1_29
*85 AOI22X1_3
*86 AOI22X1_9
*87 AOI22X1_5
*88 AOI22X1_1
*89 AOI22X1_13
*90 AOI22X1_15
*91 _373_
*92 INVX8_7
*93 AOI22X1_31
*94 AOI22X1_7
*95 AOI22X1_11
*96 AOI22X1_29
*97 AOI22X1_3
*98 AOI22X1_9
*99 AOI22X1_5
*100 AOI22X1_1
*101 AOI22X1_13
*102 AOI22X1_15
*103 AOI22X1_21
*104 AOI22X1_17
*105 AOI22X1_27
*106 AOI22X1_23
*107 AOI22X1_19
*108 AOI22X1_25
*109 _2043_
*110 NOR2X1_71
*111 NAND2X1_246
*112 NAND2X1_156
*113 NAND2X1_133
*114 NAND2X1_164
*115 NAND2X1_160
*116 NAND2X1_150
*117 NAND2X1_154
*118 NAND2X1_158
*119 NAND2X1_152
*120 NAND2X1_148
*121 NAND2X1_173
*122 NAND2X1_168
*123 NAND2X1_166
*124 NAND2X1_171
*125 NAND2X1_175
*126 NAND2X1_162
*127 _1065_
*128 INVX8_20
*129 OAI21X1_600
*130 OAI21X1_585
*131 OAI21X1_628
*132 OAI21X1_684
*133 OAI21X1_595
*134 OAI21X1_701
*135 OAI21X1_647
*136 OAI21X1_582
*137 OAI21X1_603
*138 OAI21X1_656
*139 NOR2X1_185
*140 OAI21X1_661
*141 OAI21X1_654
*142 OAI21X1_649
*143 OAI21X1_588
*144 OAI21X1_633
*145 _1071_
*146 INVX8_22
*147 OAI21X1_584
*148 OAI21X1_683
*149 OAI21X1_594
*150 OAI21X1_614
*151 OAI21X1_581
*152 OAI21X1_625
*153 OAI21X1_618
*154 OAI21X1_610
*155 NOR2X1_188
*156 OAI21X1_698
*157 OAI21X1_602
*158 OAI21X1_606
*159 OAI21X1_599
*160 OAI21X1_587
*161 OAI21X1_597
*162 OAI21X1_591
*163 wb_clk_i
*164 CLKBUF1_66
*165 CLKBUF1_62
*166 CLKBUF1_59
*167 CLKBUF1_58
*168 CLKBUF1_67
*169 CLKBUF1_55
*170 CLKBUF1_64
*171 CLKBUF1_56
*172 CLKBUF1_61
*173 CLKBUF1_65
*174 CLKBUF1_60
*175 CLKBUF1_54
*176 CLKBUF1_63
*177 CLKBUF1_53
*178 CLKBUF1_57
*179 _142_
*180 NAND3X1_35
*181 OAI22X1_21
*182 OAI22X1_24
*183 OAI22X1_9
*184 OAI22X1_15
*185 OAI22X1_33
*186 OAI22X1_12
*187 OAI22X1_27
*188 OAI22X1_6
*189 OAI22X1_18
*190 OAI22X1_3
*191 OAI22X1_36
*192 OAI22X1_30
*193 INVX8_2
*194 OAI22X1_39
*195 OAI22X1_42
*196 _143_
*197 INVX8_2
*198 NAND3X1_36
*199 NAND3X1_38
*200 NAND3X1_37
*201 NAND3X1_39
*202 NAND3X1_41
*203 AND2X2_2
*204 NAND3X1_48
*205 NAND3X1_49
*206 NAND3X1_40
*207 NAND3X1_50
*208 NAND3X1_45
*209 NAND3X1_44
*210 NAND3X1_47
*211 NAND3X1_43
*212 NAND3X1_46
*213 _809_
*214 NOR2X1_161
*215 NAND2X1_253
*216 INVX1_139
*217 NAND2X1_197
*218 NAND2X1_195
*219 NAND2X1_199
*220 NAND2X1_203
*221 NAND2X1_244
*222 NAND2X1_201
*223 NAND2X1_191
*224 NAND2X1_193
*225 NAND2X1_189
*226 NAND2X1_179
*227 NAND2X1_183
*228 NAND2X1_187
*229 NAND2X1_181
*230 _1237_
*231 INVX8_24
*232 NOR2X1_228
*233 NOR2X1_221
*234 NOR2X1_214
*235 NOR2X1_222
*236 NOR2X1_224
*237 NOR2X1_218
*238 NOR2X1_249
*239 NOR2X1_220
*240 NOR2X1_215
*241 NOR2X1_217
*242 NOR2X1_219
*243 NOR2X1_216
*244 NOR2X1_225
*245 NOR2X1_223
*246 NOR2X1_252
*247 _1317_
*248 INVX8_25
*249 NOR2X1_240
*250 NOR2X1_251
*251 NOR2X1_234
*252 NOR2X1_238
*253 NOR2X1_236
*254 NOR2X1_231
*255 NOR2X1_233
*256 NOR2X1_235
*257 NOR2X1_232
*258 NOR2X1_237
*259 NOR2X1_243
*260 NOR2X1_241
*261 NOR2X1_253
*262 NOR2X1_239
*263 NOR2X1_230
*264 rx_negedge
*265 DFFSR_42
*266 INVX2_18
*267 OAI21X1_280
*268 NAND2X1_139
*269 AOI21X1_60
*270 OAI21X1_248
*271 OAI21X1_242
*272 NAND3X1_253
*273 NAND3X1_256
*274 NAND2X1_114
*275 OAI21X1_251
*276 INVX4_8
*277 XNOR2X1_8
*278 BUFX2_78
*279 AOI21X1_74
*280 _144_
*281 AND2X2_2
*282 OAI21X1_92
*283 OAI21X1_74
*284 OAI21X1_82
*285 OAI21X1_80
*286 OAI21X1_86
*287 OAI21X1_78
*288 OAI21X1_88
*289 OAI21X1_72
*290 OAI21X1_84
*291 OAI21X1_68
*292 OAI21X1_70
*293 OAI21X1_66
*294 OAI21X1_76
*295 OAI21X1_90
*296 _503_
*297 INVX8_9
*298 OAI21X1_184
*299 OAI21X1_179
*300 OAI21X1_187
*301 OAI21X1_159
*302 OAI21X1_170
*303 OAI21X1_161
*304 OAI21X1_164
*305 OAI21X1_166
*306 OAI21X1_173
*307 OAI21X1_175
*308 AOI21X1_19
*309 OAI21X1_190
*310 OR2X2_1
*311 AOI21X1_21
*312 _547__bF_buf10
*313 BUFX4_8
*314 DFFSR_240
*315 DFFSR_224
*316 DFFSR_192
*317 DFFSR_221
*318 DFFSR_239
*319 DFFSR_209
*320 DFFSR_241
*321 DFFSR_193
*322 DFFSR_237
*323 DFFSR_161
*324 DFFSR_223
*325 DFFSR_207
*326 DFFSR_191
*327 _547__bF_buf9
*328 BUFX4_9
*329 DFFSR_212
*330 DFFSR_194
*331 DFFSR_233
*332 DFFSR_214
*333 DFFSR_184
*334 DFFSR_226
*335 DFFSR_196
*336 DFFSR_228
*337 DFFSR_230
*338 DFFSR_198
*339 DFFSR_229
*340 DFFSR_180
*341 DFFSR_200
*342 _547__bF_buf8
*343 BUFX4_10
*344 DFFSR_181
*345 DFFSR_213
*346 DFFSR_163
*347 DFFSR_153
*348 DFFSR_179
*349 DFFSR_186
*350 DFFSR_135
*351 DFFSR_238
*352 DFFSR_236
*353 DFFSR_174
*354 DFFSR_187
*355 DFFSR_155
*356 DFFSR_211
*357 _547__bF_buf7
*358 BUFX4_11
*359 DFFSR_145
*360 DFFSR_123
*361 DFFSR_147
*362 DFFSR_152
*363 DFFSR_154
*364 DFFSR_162
*365 DFFSR_119
*366 DFFSR_131
*367 DFFSR_158
*368 DFFSR_130
*369 DFFSR_140
*370 DFFSR_122
*371 DFFSR_142
*372 _547__bF_buf6
*373 BUFX4_12
*374 DFFSR_242
*375 DFFSR_232
*376 DFFSR_243
*377 DFFSR_210
*378 DFFSR_197
*379 DFFSR_168
*380 DFFSR_139
*381 DFFSR_202
*382 DFFSR_151
*383 DFFSR_231
*384 DFFSR_170
*385 DFFSR_166
*386 DFFSR_164
*387 _547__bF_buf5
*388 BUFX4_13
*389 DFFSR_167
*390 DFFSR_134
*391 DFFSR_165
*392 DFFSR_203
*393 DFFSR_133
*394 DFFSR_132
*395 DFFSR_178
*396 DFFSR_120
*397 DFFSR_169
*398 DFFSR_137
*399 DFFSR_138
*400 DFFSR_118
*401 DFFSR_146
*402 _999_
*403 INVX8_19
*404 NOR2X1_183
*405 NOR2X1_180
*406 NOR2X1_248
*407 NOR2X1_184
*408 NOR2X1_177
*409 NOR2X1_181
*410 NOR2X1_179
*411 NOR2X1_247
*412 NOR2X1_174
*413 NOR2X1_178
*414 NOR2X1_176
*415 NOR2X1_175
*416 NOR2X1_182
*417 _547__bF_buf4
*418 BUFX4_14
*419 DFFSR_173
*420 DFFSR_244
*421 DFFSR_128
*422 DFFSR_141
*423 DFFSR_160
*424 DFFSR_175
*425 DFFSR_245
*426 DFFSR_159
*427 DFFSR_125
*428 DFFSR_127
*429 DFFSR_144
*430 DFFSR_176
*431 _547__bF_buf3
*432 BUFX4_15
*433 DFFSR_250
*434 DFFSR_252
*435 DFFSR_251
*436 DFFSR_248
*437 DFFSR_205
*438 DFFSR_246
*439 DFFSR_247
*440 DFFSR_189
*441 DFFSR_208
*442 DFFSR_249
*443 DFFSR_253
*444 DFFSR_157
*445 _547__bF_buf2
*446 BUFX4_16
*447 DFFSR_150
*448 DFFSR_148
*449 DFFSR_171
*450 DFFSR_235
*451 DFFSR_182
*452 DFFSR_216
*453 DFFSR_234
*454 DFFSR_222
*455 DFFSR_215
*456 DFFSR_201
*457 DFFSR_136
*458 DFFSR_199
*459 _547__bF_buf1
*460 BUFX4_17
*461 DFFSR_188
*462 DFFSR_220
*463 DFFSR_225
*464 DFFSR_195
*465 DFFSR_218
*466 DFFSR_206
*467 DFFSR_219
*468 DFFSR_183
*469 DFFSR_190
*470 DFFSR_172
*471 DFFSR_204
*472 DFFSR_217
*473 _547__bF_buf0
*474 BUFX4_18
*475 DFFSR_185
*476 DFFSR_129
*477 DFFSR_149
*478 DFFSR_156
*479 DFFSR_177
*480 DFFSR_143
*481 DFFSR_124
*482 DFFSR_121
*483 DFFSR_116
*484 DFFSR_227
*485 DFFSR_117
*486 DFFSR_126
*487 _1615_
*488 INVX8_13
*489 NAND3X1_134
*490 AOI21X1_51
*491 AOI21X1_58
*492 AOI21X1_34
*493 AOI21X1_45
*494 AOI21X1_47
*495 AOI21X1_40
*496 OAI21X1_217
*497 AOI21X1_49
*498 AOI21X1_56
*499 AOI21X1_52
*500 NAND3X1_149
*501 _909_
*502 INVX8_17
*503 OR2X2_12
*504 OR2X2_11
*505 OR2X2_13
*506 NOR2X1_168
*507 NOR2X1_170
*508 NOR2X1_165
*509 NOR2X1_166
*510 NOR2X1_169
*511 NOR2X1_167
*512 NOR2X1_244
*513 NOR2X1_171
*514 NOR2X1_172
*515 _547_
*516 INVX8_26
*517 BUFX4_14
*518 BUFX4_15
*519 BUFX4_10
*520 BUFX4_18
*521 BUFX4_16
*522 BUFX4_13
*523 BUFX4_11
*524 BUFX4_17
*525 BUFX4_9
*526 BUFX4_12
*527 BUFX4_8
*528 clgen_enable_bF_buf9
*529 BUFX4_118
*530 OAI21X1_126
*531 OAI21X1_153
*532 OAI21X1_139
*533 OAI21X1_155
*534 OAI21X1_133
*535 OAI21X1_141
*536 OAI21X1_134
*537 OAI21X1_130
*538 OAI21X1_129
*539 OAI21X1_151
*540 OAI21X1_131
*541 _686__bF_buf8
*542 BUFX4_152
*543 AOI21X1_152
*544 AOI21X1_155
*545 AOI21X1_141
*546 AOI21X1_138
*547 AOI21X1_153
*548 AOI21X1_189
*549 AOI21X1_186
*550 AOI21X1_170
*551 AOI21X1_185
*552 AOI21X1_166
*553 AOI21X1_167
*554 _686__bF_buf7
*555 BUFX4_153
*556 AOI21X1_142
*557 AOI21X1_162
*558 OAI21X1_346
*559 AOI21X1_160
*560 AOI21X1_204
*561 OAI21X1_686
*562 OAI21X1_671
*563 OAI21X1_568
*564 OAI21X1_558
*565 OAI21X1_519
*566 OAI21X1_667
*567 _686__bF_buf6
*568 BUFX4_154
*569 AOI21X1_139
*570 AOI21X1_184
*571 AOI21X1_190
*572 AOI21X1_201
*573 AOI21X1_171
*574 NOR2X1_242
*575 AOI21X1_165
*576 AOI21X1_158
*577 AOI21X1_151
*578 AOI21X1_137
*579 AOI21X1_154
*580 _686__bF_buf5
*581 BUFX4_155
*582 OAI21X1_492
*583 OAI21X1_403
*584 OAI21X1_407
*585 OAI21X1_465
*586 OAI21X1_401
*587 OAI21X1_399
*588 OAI21X1_350
*589 OAI21X1_364
*590 AOI21X1_161
*591 OAI21X1_669
*592 OAI21X1_677
*593 _686__bF_buf4
*594 BUFX4_156
*595 OAI21X1_382
*596 OAI21X1_393
*597 OAI21X1_397
*598 OAI21X1_352
*599 OAI21X1_391
*600 OAI21X1_360
*601 OAI21X1_384
*602 OAI21X1_386
*603 OAI21X1_356
*604 OAI21X1_354
*605 AOI21X1_156
*606 _5__bF_buf8
*607 BUFX4_208
*608 DFFSR_14
*609 DFFSR_56
*610 DFFSR_28
*611 DFFSR_1
*612 DFFSR_7
*613 DFFSR_48
*614 DFFSR_11
*615 DFFSR_26
*616 DFFSR_6
*617 DFFSR_4
*618 DFFSR_49
*619 _5__bF_buf7
*620 BUFX4_209
*621 DFFSR_46
*622 DFFSR_61
*623 DFFSR_79
*624 DFFSR_8
*625 DFFSR_9
*626 DFFSR_16
*627 DFFSR_51
*628 DFFSR_10
*629 DFFSR_5
*630 DFFSR_91
*631 DFFSR_72
*632 _5__bF_buf6
*633 BUFX4_210
*634 DFFSR_38
*635 DFFSR_29
*636 DFFSR_35
*637 DFFSR_80
*638 DFFSR_45
*639 DFFSR_43
*640 DFFSR_36
*641 DFFSR_44
*642 DFFSR_33
*643 DFFSR_37
*644 DFFSR_34
*645 _5__bF_buf5
*646 BUFX4_211
*647 DFFSR_23
*648 DFFSR_88
*649 DFFSR_83
*650 DFFSR_17
*651 DFFSR_82
*652 DFFSR_85
*653 DFFSR_22
*654 DFFSR_95
*655 DFFSR_18
*656 DFFSR_19
*657 DFFSR_86
*658 _5__bF_buf4
*659 BUFX4_212
*660 DFFSR_54
*661 DFFSR_39
*662 DFFSR_41
*663 DFFSR_66
*664 DFFSR_74
*665 DFFSR_93
*666 DFFSR_65
*667 DFFSR_76
*668 DFFSR_70
*669 DFFSR_68
*670 DFFSR_42
*671 _5__bF_buf3
*672 BUFX4_213
*673 DFFSR_84
*674 DFFSR_71
*675 DFFSR_89
*676 DFFSR_30
*677 DFFSR_73
*678 DFFSR_32
*679 DFFSR_20
*680 DFFSR_25
*681 DFFSR_92
*682 DFFSR_3
*683 DFFSR_15
*684 clgen_pos_edge
*685 DFFSR_97
*686 MUX2X1_1
*687 INVX4_9
*688 XNOR2X1_14
*689 OAI21X1_707
*690 NAND2X1_260
*691 OAI21X1_703
*692 OAI21X1_709
*693 NAND2X1_258
*694 OAI21X1_705
*695 OAI21X1_704
*696 NAND3X1_42
*697 _434_
*698 OAI21X1_158
*699 OAI21X1_160
*700 AOI22X1_33
*701 NOR2X1_46
*702 AOI21X1_26
*703 OAI21X1_180
*704 OAI21X1_167
*705 OAI21X1_165
*706 OAI21X1_162
*707 OAI21X1_176
*708 OAI21X1_174
*709 OAI21X1_171
*710 _450_
*711 AOI21X1_21
*712 OAI21X1_177
*713 OAI21X1_168
*714 OAI21X1_169
*715 OAI21X1_178
*716 OAI21X1_183
*717 NOR2X1_47
*718 OAI21X1_186
*719 OAI22X1_50
*720 OAI21X1_189
*721 OAI21X1_181
*722 OAI21X1_182
*723 shift_cnt[4]
*724 DFFSR_250
*725 OAI21X1_707
*726 OAI21X1_247
*727 OAI21X1_209
*728 NAND3X1_262
*729 AOI21X1_64
*730 NAND2X1_119
*731 INVX2_48
*732 OAI21X1_238
*733 OAI21X1_211
*734 OAI21X1_208
*735 NOR2X1_58
*736 shift_cnt[1]
*737 DFFSR_247
*738 OAI21X1_703
*739 INVX1_127
*740 NAND2X1_115
*741 OAI21X1_198
*742 XNOR2X1_3
*743 NAND2X1_113
*744 OR2X2_5
*745 NAND3X1_253
*746 AND2X2_8
*747 NOR2X1_48
*748 OAI21X1_197
*749 _1068_
*750 NOR2X1_186
*751 INVX4_11
*752 AND2X2_19
*753 AND2X2_20
*754 NAND2X1_214
*755 NAND2X1_215
*756 AND2X2_17
*757 NAND2X1_213
*758 AND2X2_18
*759 NAND2X1_251
*760 NAND2X1_248
*761 NAND2X1_212
*762 _1163_
*763 NOR2X1_206
*764 NAND2X1_216
*765 NAND2X1_220
*766 NAND2X1_218
*767 NAND2X1_252
*768 NAND2X1_221
*769 NAND2X1_223
*770 NAND2X1_222
*771 NAND2X1_219
*772 NAND2X1_217
*773 INVX4_12
*774 NAND2X1_250
*775 clgen_enable
*776 DFFSR_245
*777 BUFX4_119
*778 BUFX4_122
*779 BUFX4_121
*780 BUFX4_124
*781 BUFX4_120
*782 BUFX4_118
*783 BUFX4_127
*784 BUFX4_123
*785 BUFX4_125
*786 BUFX4_126
*787 clgen_enable_bF_buf8
*788 BUFX4_119
*789 NAND3X1_42
*790 OAI21X1_588
*791 OAI21X1_633
*792 OAI21X1_587
*793 OAI21X1_597
*794 OAI21X1_584
*795 OAI21X1_591
*796 INVX4_10
*797 NOR2X1_263
*798 NAND2X1_262
*799 clgen_enable_bF_buf7
*800 BUFX4_120
*801 OAI21X1_157
*802 OAI21X1_156
*803 OAI21X1_145
*804 OAI21X1_152
*805 OAI21X1_147
*806 OAI21X1_137
*807 OAI21X1_150
*808 OAI21X1_128
*809 OAI21X1_140
*810 OAI21X1_135
*811 clgen_enable_bF_buf6
*812 BUFX4_121
*813 OAI21X1_684
*814 OAI21X1_595
*815 OAI21X1_628
*816 OAI21X1_585
*817 OAI21X1_649
*818 OAI21X1_661
*819 OAI21X1_654
*820 OAI21X1_614
*821 OAI21X1_594
*822 OAI21X1_683
*823 clgen_enable_bF_buf5
*824 BUFX4_122
*825 NAND2X1_76
*826 OAI21X1_600
*827 NOR2X1_1
*828 OAI21X1_154
*829 OAI21X1_138
*830 OAI21X1_127
*831 OAI21X1_136
*832 OAI21X1_132
*833 INVX8_9
*834 OAI21X1_158
*835 clgen_enable_bF_buf4
*836 BUFX4_123
*837 OAI21X1_417
*838 OAI21X1_429
*839 OAI22X1_121
*840 OAI21X1_704
*841 OAI22X1_122
*842 OAI21X1_709
*843 OAI22X1_123
*844 NOR2X1_254
*845 AOI21X1_222
*846 OAI21X1_703
*847 clgen_enable_bF_buf3
*848 BUFX4_124
*849 OAI21X1_701
*850 OAI21X1_647
*851 OAI21X1_582
*852 OAI21X1_603
*853 OAI21X1_143
*854 OAI21X1_144
*855 OAI21X1_142
*856 OAI21X1_148
*857 OAI21X1_146
*858 OAI21X1_149
*859 clgen_enable_bF_buf2
*860 BUFX4_125
*861 OAI21X1_433
*862 OAI21X1_348
*863 OAI21X1_599
*864 NOR2X1_158
*865 OAI21X1_425
*866 OAI21X1_441
*867 NOR2X1_145
*868 OAI21X1_663
*869 OAI21X1_413
*870 OAI21X1_421
*871 clgen_enable_bF_buf1
*872 BUFX4_126
*873 OAI21X1_445
*874 OAI21X1_453
*875 OAI21X1_409
*876 OAI21X1_461
*877 OAI21X1_457
*878 OAI21X1_437
*879 OAI21X1_449
*880 OAI21X1_676
*881 OAI21X1_541
*882 OAI21X1_533
*883 clgen_enable_bF_buf0
*884 BUFX4_127
*885 NOR2X1_185
*886 OAI21X1_602
*887 OAI21X1_581
*888 OAI21X1_606
*889 OAI21X1_656
*890 OAI21X1_625
*891 OAI21X1_618
*892 OAI21X1_610
*893 NOR2X1_188
*894 OAI21X1_698
*895 _686__bF_buf3
*896 BUFX4_157
*897 OAI21X1_438
*898 OAI21X1_688
*899 AOI21X1_172
*900 AOI21X1_164
*901 OAI21X1_539
*902 OAI21X1_534
*903 OAI21X1_545
*904 AOI21X1_176
*905 AOI21X1_179
*906 NOR2X1_227
*907 _686__bF_buf2
*908 BUFX4_158
*909 OAI21X1_410
*910 OAI21X1_504
*911 OAI21X1_462
*912 OAI21X1_446
*913 OAI21X1_454
*914 OAI21X1_375
*915 OAI21X1_377
*916 OAI21X1_368
*917 OAI21X1_370
*918 OAI21X1_458
*919 _686__bF_buf1
*920 BUFX4_159
*921 OAI21X1_574
*922 OAI21X1_572
*923 OAI21X1_690
*924 OAI21X1_566
*925 OAI21X1_570
*926 OAI21X1_547
*927 OAI21X1_579
*928 AOI21X1_173
*929 AOI21X1_144
*930 AOI21X1_146
*931 _686__bF_buf0
*932 BUFX4_160
*933 OAI21X1_395
*934 OAI21X1_362
*935 OAI21X1_366
*936 OAI21X1_692
*937 AOI21X1_213
*938 AOI21X1_157
*939 OAI21X1_358
*940 AOI21X1_140
*941 OAI21X1_405
*942 AOI21X1_211
*943 _5__bF_buf2
*944 BUFX4_214
*945 DFFSR_87
*946 DFFSR_69
*947 DFFSR_24
*948 DFFSR_21
*949 DFFSR_81
*950 DFFSR_27
*951 DFFSR_31
*952 DFFSR_12
*953 DFFSR_67
*954 DFFSR_96
*955 _5__bF_buf1
*956 BUFX4_215
*957 DFFSR_75
*958 DFFSR_94
*959 DFFSR_78
*960 DFFSR_2
*961 DFFSR_90
*962 DFFSR_77
*963 DFFSR_64
*964 DFFSR_58
*965 DFFSR_62
*966 DFFSR_60
*967 _5__bF_buf0
*968 BUFX4_216
*969 DFFSR_57
*970 DFFSR_63
*971 DFFSR_59
*972 DFFSR_53
*973 DFFSR_52
*974 DFFSR_50
*975 DFFSR_55
*976 DFFSR_40
*977 DFFSR_47
*978 DFFSR_13
*979 _438_
*980 INVX8_10
*981 OAI21X1_175
*982 OAI21X1_173
*983 OAI21X1_161
*984 OAI21X1_170
*985 OAI21X1_187
*986 OAI21X1_159
*987 OAI21X1_179
*988 OAI21X1_184
*989 OAI21X1_164
*990 OAI21X1_166
*991 shift_cnt[3]
*992 DFFSR_249
*993 OAI21X1_705
*994 AOI21X1_74
*995 INVX4_7
*996 NAND3X1_254
*997 OAI21X1_202
*998 OAI21X1_211
*999 NOR2X1_49
*1000 XOR2X1_2
*1001 OAI21X1_205
*1002 OAI21X1_237
*1003 _1955_
*1004 INVX4_8
*1005 NAND2X1_115
*1006 OAI21X1_234
*1007 OAI21X1_254
*1008 OAI21X1_253
*1009 NAND2X1_122
*1010 NAND2X1_125
*1011 OAI21X1_245
*1012 AOI21X1_71
*1013 OAI21X1_247
*1014 NAND2X1_112
*1015 wb_sel_i[1_bF_buf7]
*1016 BUFX4_19
*1017 NAND2X1_21
*1018 OAI21X1_65
*1019 NAND2X1_17
*1020 OAI21X1_97
*1021 NAND2X1_188
*1022 OAI21X1_561
*1023 NAND2X1_180
*1024 OAI21X1_644
*1025 OAI21X1_478
*1026 wb_sel_i[1_bF_buf6]
*1027 BUFX4_20
*1028 OAI21X1_67
*1029 OAI21X1_99
*1030 OAI21X1_41
*1031 OAI21X1_33
*1032 NAND2X1_245
*1033 OAI21X1_564
*1034 OAI21X1_392
*1035 OAI21X1_383
*1036 OAI21X1_481
*1037 wb_sel_i[1_bF_buf5]
*1038 BUFX4_21
*1039 NAND2X1_18
*1040 OAI21X1_69
*1041 NAND2X1_190
*1042 NAND2X1_22
*1043 OAI21X1_101
*1044 MUX2X1_31
*1045 NAND2X1_182
*1046 OAI21X1_668
*1047 OAI21X1_484
*1048 wb_sel_i[1_bF_buf4]
*1049 BUFX4_22
*1050 OAI21X1_71
*1051 OAI21X1_103
*1052 OAI21X1_43
*1053 OAI21X1_35
*1054 OAI21X1_630
*1055 OAI21X1_385
*1056 OAI21X1_394
*1057 OAI21X1_674
*1058 OAI21X1_548
*1059 wb_sel_i[1_bF_buf3]
*1060 BUFX4_23
*1061 MUX2X1_33
*1062 NAND2X1_184
*1063 OAI21X1_550
*1064 OAI21X1_687
*1065 OAI21X1_466
*1066 NAND2X1_19
*1067 OAI21X1_73
*1068 NAND2X1_23
*1069 OAI21X1_105
*1070 wb_sel_i[1_bF_buf2]
*1071 BUFX4_24
*1072 OAI21X1_553
*1073 OAI21X1_635
*1074 OAI21X1_387
*1075 OAI21X1_469
*1076 OAI21X1_694
*1077 OAI21X1_75
*1078 OAI21X1_37
*1079 OAI21X1_107
*1080 OAI21X1_45
*1081 wb_sel_i[0_bF_buf7]
*1082 BUFX4_105
*1083 NAND2X1_29
*1084 MUX2X1_41
*1085 NAND2X1_25
*1086 OAI21X1_77
*1087 OAI21X1_109
*1088 NAND2X1_200
*1089 OAI21X1_573
*1090 OAI21X1_493
*1091 NAND2X1_192
*1092 wb_sel_i[0_bF_buf6]
*1093 BUFX4_106
*1094 OAI21X1_57
*1095 OAI21X1_49
*1096 OAI21X1_111
*1097 OAI21X1_79
*1098 OAI21X1_658
*1099 OAI21X1_575
*1100 OAI21X1_496
*1101 OAI21X1_404
*1102 OAI21X1_396
*1103 wb_sel_i[0_bF_buf5]
*1104 BUFX4_107
*1105 OAI21X1_113
*1106 NAND2X1_30
*1107 OAI21X1_81
*1108 NAND2X1_194
*1109 OAI21X1_577
*1110 OAI21X1_499
*1111 NAND2X1_26
*1112 NAND2X1_202
*1113 MUX2X1_43
*1114 wb_sel_i[0_bF_buf4]
*1115 BUFX4_108
*1116 NAND2X1_249
*1117 OAI21X1_51
*1118 OAI21X1_115
*1119 OAI21X1_59
*1120 OAI21X1_83
*1121 OAI21X1_398
*1122 OAI21X1_502
*1123 OAI21X1_406
*1124 OAI21X1_580
*1125 wb_sel_i[0_bF_buf3]
*1126 BUFX4_109
*1127 OAI21X1_117
*1128 NAND2X1_31
*1129 OAI21X1_85
*1130 MUX2X1_35
*1131 NAND2X1_27
*1132 NAND2X1_204
*1133 NAND2X1_196
*1134 OAI21X1_681
*1135 OAI21X1_505
*1136 wb_sel_i[0_bF_buf2]
*1137 BUFX4_110
*1138 OAI21X1_53
*1139 OAI21X1_61
*1140 OAI21X1_119
*1141 OAI21X1_87
*1142 MUX2X1_37
*1143 OAI21X1_567
*1144 OAI21X1_691
*1145 OAI21X1_400
*1146 OAI21X1_408
*1147 wb_sel_i[0_bF_buf1]
*1148 BUFX4_111
*1149 NAND2X1_32
*1150 OAI21X1_121
*1151 OAI21X1_89
*1152 NAND2X1_28
*1153 OAI21X1_569
*1154 OAI21X1_487
*1155 OAI21X1_693
*1156 NAND2X1_198
*1157 OAI21X1_651
*1158 wb_sel_i[0_bF_buf0]
*1159 BUFX4_112
*1160 OAI21X1_63
*1161 OAI21X1_55
*1162 OAI21X1_123
*1163 OAI21X1_91
*1164 MUX2X1_47
*1165 MUX2X1_39
*1166 OAI21X1_571
*1167 OAI21X1_402
*1168 OAI21X1_490
*1169 _686_
*1170 INVX8_14
*1171 BUFX4_155
*1172 BUFX4_160
*1173 BUFX4_156
*1174 BUFX4_153
*1175 BUFX4_154
*1176 BUFX4_152
*1177 BUFX4_158
*1178 BUFX4_157
*1179 BUFX4_159
*1180 _1067__bF_buf6
*1181 BUFX4_161
*1182 OAI21X1_604
*1183 OAI21X1_657
*1184 OAI21X1_583
*1185 OAI21X1_607
*1186 OAI22X1_110
*1187 OAI21X1_538
*1188 OAI21X1_611
*1189 OAI21X1_532
*1190 OAI22X1_109
*1191 _1067__bF_buf5
*1192 BUFX4_162
*1193 OAI21X1_636
*1194 OAI21X1_592
*1195 OAI22X1_103
*1196 OAI21X1_631
*1197 OAI21X1_565
*1198 OAI22X1_116
*1199 OAI21X1_512
*1200 OAI22X1_112
*1201 OAI21X1_551
*1202 _1067__bF_buf4
*1203 BUFX4_163
*1204 OAI21X1_650
*1205 OAI21X1_586
*1206 OAI21X1_629
*1207 OAI21X1_662
*1208 OAI21X1_685
*1209 OAI21X1_596
*1210 OAI21X1_702
*1211 OAI21X1_648
*1212 OAI21X1_601
*1213 _2078__bF_buf7
*1214 BUFX4_172
*1215 NOR2X1_112
*1216 NOR2X1_113
*1217 NOR2X1_78
*1218 OAI21X1_337
*1219 NOR2X1_133
*1220 NOR2X1_103
*1221 OAI21X1_272
*1222 OAI21X1_331
*1223 OAI21X1_262
*1224 _2078__bF_buf6
*1225 BUFX4_173
*1226 NOR2X1_107
*1227 NOR2X1_108
*1228 NOR2X1_81
*1229 NOR2X1_82
*1230 OAI21X1_267
*1231 OAI21X1_266
*1232 OAI21X1_276
*1233 OAI21X1_289
*1234 OAI21X1_290
*1235 _2078__bF_buf5
*1236 BUFX4_174
*1237 NOR2X1_91
*1238 NOR2X1_100
*1239 NOR2X1_99
*1240 NOR2X1_90
*1241 NOR2X1_124
*1242 NOR2X1_125
*1243 OAI21X1_277
*1244 OAI21X1_321
*1245 OAI21X1_320
*1246 _2078__bF_buf4
*1247 BUFX4_175
*1248 NOR2X1_129
*1249 NOR2X1_95
*1250 OAI21X1_294
*1251 OAI21X1_327
*1252 NOR2X1_96
*1253 OAI21X1_326
*1254 NOR2X1_128
*1255 NOR2X1_132
*1256 OAI21X1_284
*1257 _11__bF_buf7
*1258 BUFX4_195
*1259 AND2X2_1
*1260 NAND3X1_8
*1261 NAND3X1_3
*1262 NAND3X1_29
*1263 NAND3X1_31
*1264 NAND3X1_64
*1265 NAND3X1_10
*1266 NAND3X1_5
*1267 NAND3X1_16
*1268 _5_
*1269 INVX8_8
*1270 BUFX4_212
*1271 BUFX4_216
*1272 BUFX4_210
*1273 BUFX4_215
*1274 BUFX4_208
*1275 BUFX4_209
*1276 BUFX4_213
*1277 BUFX4_214
*1278 BUFX4_211
*1279 _2025__bF_buf7
*1280 BUFX4_221
*1281 OAI21X1_293
*1282 NOR2X1_105
*1283 NOR2X1_97
*1284 NOR2X1_106
*1285 OAI21X1_283
*1286 NOR2X1_98
*1287 NOR2X1_130
*1288 NOR2X1_164
*1289 NOR2X1_138
*1290 _2025__bF_buf6
*1291 BUFX4_222
*1292 OAI21X1_304
*1293 OAI21X1_325
*1294 OAI21X1_292
*1295 OAI21X1_282
*1296 OAI21X1_303
*1297 NOR2X1_134
*1298 OAI21X1_324
*1299 OAI21X1_329
*1300 NOR2X1_131
*1301 _2025__bF_buf5
*1302 BUFX4_223
*1303 OAI21X1_314
*1304 NOR2X1_71
*1305 OAI21X1_334
*1306 OAI21X1_313
*1307 NOR2X1_122
*1308 NOR2X1_139
*1309 NOR2X1_123
*1310 NOR2X1_161
*1311 NOR2X1_173
*1312 _2025__bF_buf4
*1313 BUFX4_224
*1314 OAI21X1_259
*1315 OAI21X1_330
*1316 OAI21X1_308
*1317 NOR2X1_89
*1318 OAI21X1_339
*1319 OAI21X1_270
*1320 NOR2X1_135
*1321 NOR2X1_80
*1322 NOR2X1_114
*1323 _694__bF_buf7
*1324 BUFX4_243
*1325 AOI21X1_125
*1326 AOI22X1_37
*1327 AOI21X1_83
*1328 AOI22X1_39
*1329 AOI21X1_119
*1330 AOI22X1_51
*1331 AOI21X1_115
*1332 AOI21X1_87
*1333 AOI21X1_111
*1334 _694__bF_buf6
*1335 BUFX4_244
*1336 AOI22X1_45
*1337 AOI21X1_99
*1338 OAI21X1_412
*1339 AOI22X1_46
*1340 OAI21X1_440
*1341 OAI21X1_679
*1342 OAI21X1_506
*1343 OAI21X1_381
*1344 AOI22X1_36
*1345 _694__bF_buf5
*1346 BUFX4_245
*1347 AOI22X1_44
*1348 OAI21X1_390
*1349 AOI22X1_57
*1350 AOI21X1_129
*1351 AOI21X1_131
*1352 AOI21X1_127
*1353 OAI21X1_467
*1354 AOI21X1_135
*1355 AOI22X1_60
*1356 _694__bF_buf4
*1357 BUFX4_246
*1358 AOI22X1_42
*1359 AOI21X1_93
*1360 AOI22X1_35
*1361 AOI21X1_79
*1362 AOI22X1_40
*1363 AOI21X1_89
*1364 AOI21X1_97
*1365 AOI22X1_89
*1366 AOI21X1_221
*1367 _694__bF_buf3
*1368 BUFX4_247
*1369 AOI22X1_55
*1370 AOI22X1_59
*1371 AOI21X1_133
*1372 AOI21X1_123
*1373 AOI22X1_54
*1374 AOI22X1_82
*1375 AOI21X1_206
*1376 AOI21X1_121
*1377 AOI22X1_53
*1378 _694__bF_buf2
*1379 BUFX4_248
*1380 OAI21X1_494
*1381 AOI21X1_81
*1382 AOI22X1_58
*1383 AOI22X1_56
*1384 AOI21X1_95
*1385 AOI22X1_83
*1386 AOI21X1_101
*1387 AOI21X1_208
*1388 AOI22X1_43
*1389 _694__bF_buf1
*1390 BUFX4_249
*1391 AOI21X1_107
*1392 AOI22X1_48
*1393 AOI21X1_105
*1394 OAI21X1_464
*1395 OAI21X1_374
*1396 OAI21X1_448
*1397 AOI22X1_47
*1398 OAI21X1_456
*1399 OAI21X1_460
*1400 char_len[0]
*1401 DFFSR_33
*1402 INVX2_23
*1403 NOR2X1_254
*1404 NOR2X1_69
*1405 OR2X2_8
*1406 NOR2X1_73
*1407 BUFX2_70
*1408 OAI21X1_194
*1409 NOR2X1_53
*1410 OAI21X1_192
*1411 shift_cnt[2]
*1412 DFFSR_248
*1413 OAI21X1_704
*1414 OAI21X1_197
*1415 OAI21X1_202
*1416 OAI21X1_234
*1417 XNOR2X1_4
*1418 OAI21X1_201
*1419 INVX4_2
*1420 NAND3X1_254
*1421 NAND3X1_259
*1422 shift_cnt[0]
*1423 DFFSR_246
*1424 XNOR2X1_14
*1425 OAI21X1_197
*1426 NAND3X1_253
*1427 OR2X2_5
*1428 NAND2X1_113
*1429 INVX2_49
*1430 XNOR2X1_8
*1431 AND2X2_8
*1432 NOR2X1_48
*1433 _1066__bF_buf6
*1434 BUFX4_1
*1435 AOI22X1_73
*1436 AOI21X1_181
*1437 AOI22X1_72
*1438 AOI21X1_178
*1439 NAND2X1_256
*1440 AOI21X1_175
*1441 OAI21X1_700
*1442 AOI22X1_71
*1443 _1066__bF_buf5
*1444 BUFX4_2
*1445 NAND2X1_227
*1446 NAND2X1_230
*1447 NAND2X1_233
*1448 OAI21X1_627
*1449 INVX8_21
*1450 NAND2X1_226
*1451 OAI21X1_653
*1452 NAND2X1_231
*1453 _1066__bF_buf4
*1454 BUFX4_3
*1455 AOI21X1_217
*1456 NAND2X1_240
*1457 AOI22X1_80
*1458 AOI22X1_87
*1459 AOI21X1_198
*1460 AOI22X1_79
*1461 AOI21X1_200
*1462 AOI22X1_81
*1463 _1066__bF_buf3
*1464 BUFX4_4
*1465 NAND2X1_254
*1466 AOI22X1_77
*1467 AOI21X1_194
*1468 AOI22X1_86
*1469 AOI21X1_215
*1470 OAI21X1_696
*1471 AOI22X1_75
*1472 AOI21X1_188
*1473 _1066__bF_buf2
*1474 BUFX4_5
*1475 AOI21X1_219
*1476 AOI22X1_70
*1477 AOI21X1_169
*1478 AOI21X1_210
*1479 AOI22X1_84
*1480 AOI22X1_88
*1481 AOI21X1_192
*1482 AOI21X1_183
*1483 wb_sel_i[1]
*1484 BUFX4_25
*1485 BUFX4_24
*1486 BUFX4_21
*1487 BUFX4_22
*1488 BUFX4_20
*1489 BUFX4_26
*1490 BUFX4_19
*1491 BUFX4_23
*1492 wb_sel_i[1_bF_buf1]
*1493 BUFX4_25
*1494 NAND2X1_20
*1495 OAI21X1_93
*1496 NAND2X1_24
*1497 NAND2X1_177
*1498 NAND2X1_185
*1499 OAI21X1_638
*1500 OAI21X1_556
*1501 OAI21X1_472
*1502 wb_sel_i[1_bF_buf0]
*1503 BUFX4_26
*1504 OAI21X1_641
*1505 OAI21X1_475
*1506 OAI21X1_559
*1507 OAI21X1_388
*1508 OAI21X1_379
*1509 OAI21X1_95
*1510 OAI21X1_47
*1511 OAI21X1_39
*1512 _693__bF_buf5
*1513 BUFX4_40
*1514 OAI21X1_452
*1515 OAI22X1_90
*1516 OAI21X1_500
*1517 OAI22X1_100
*1518 OAI21X1_444
*1519 OAI22X1_89
*1520 OAI21X1_497
*1521 INVX8_16
*1522 _693__bF_buf4
*1523 BUFX4_41
*1524 OAI22X1_91
*1525 OAI22X1_98
*1526 OAI21X1_491
*1527 OAI22X1_94
*1528 OAI21X1_479
*1529 OAI21X1_436
*1530 OAI22X1_88
*1531 OAI21X1_503
*1532 _693__bF_buf3
*1533 BUFX4_42
*1534 OAI22X1_101
*1535 OAI21X1_348
*1536 OAI21X1_485
*1537 OAI22X1_96
*1538 OAI21X1_675
*1539 OAI22X1_119
*1540 OAI22X1_86
*1541 OAI21X1_428
*1542 _693__bF_buf2
*1543 BUFX4_43
*1544 OAI22X1_93
*1545 OAI21X1_424
*1546 OAI22X1_85
*1547 OAI21X1_476
*1548 OAI21X1_420
*1549 OAI22X1_83
*1550 OAI21X1_416
*1551 OAI21X1_470
*1552 _1606__bF_buf5
*1553 BUFX4_46
*1554 NAND3X1_176
*1555 NAND3X1_162
*1556 NAND3X1_93
*1557 NAND3X1_174
*1558 NAND3X1_146
*1559 NAND3X1_207
*1560 NAND3X1_199
*1561 NAND3X1_201
*1562 _1606__bF_buf4
*1563 BUFX4_47
*1564 NAND3X1_216
*1565 NAND3X1_182
*1566 NAND3X1_248
*1567 NAND3X1_246
*1568 NAND3X1_218
*1569 NAND3X1_205
*1570 NAND3X1_144
*1571 NAND3X1_164
*1572 _1606__bF_buf3
*1573 BUFX4_48
*1574 NAND3X1_187
*1575 NAND3X1_170
*1576 NAND3X1_189
*1577 NAND3X1_193
*1578 NAND3X1_108
*1579 NAND3X1_195
*1580 NAND3X1_111
*1581 NAND3X1_109
*1582 _1606__bF_buf2
*1583 BUFX4_49
*1584 NAND3X1_234
*1585 NAND3X1_236
*1586 NAND3X1_230
*1587 NAND3X1_151
*1588 NAND3X1_153
*1589 NAND3X1_228
*1590 NAND3X1_138
*1591 NAND3X1_136
*1592 _1606__bF_buf1
*1593 BUFX4_50
*1594 NAND3X1_123
*1595 NAND3X1_180
*1596 NAND3X1_168
*1597 NAND3X1_102
*1598 NAND3X1_95
*1599 NAND3X1_98
*1600 NAND3X1_105
*1601 NAND3X1_121
*1602 _1606__bF_buf0
*1603 BUFX4_51
*1604 NAND3X1_115
*1605 NAND3X1_117
*1606 NAND3X1_242
*1607 NAND3X1_224
*1608 NAND3X1_240
*1609 NAND3X1_128
*1610 NAND3X1_132
*1611 NAND3X1_222
*1612 _1603__bF_buf5
*1613 BUFX4_56
*1614 NAND3X1_131
*1615 NAND3X1_177
*1616 NAND3X1_118
*1617 NAND3X1_161
*1618 NAND3X1_92
*1619 NAND3X1_173
*1620 NAND3X1_198
*1621 NAND3X1_202
*1622 _1603__bF_buf4
*1623 BUFX4_57
*1624 NAND3X1_190
*1625 NAND3X1_135
*1626 NAND3X1_139
*1627 NAND3X1_179
*1628 NAND3X1_192
*1629 NAND3X1_107
*1630 NAND3X1_106
*1631 NAND3X1_227
*1632 _1603__bF_buf3
*1633 BUFX4_58
*1634 NAND3X1_233
*1635 NAND3X1_237
*1636 NAND3X1_150
*1637 NAND3X1_154
*1638 NAND3X1_231
*1639 NAND3X1_110
*1640 NAND3X1_196
*1641 NAND3X1_112
*1642 _1603__bF_buf2
*1643 BUFX4_59
*1644 NAND3X1_120
*1645 NAND3X1_124
*1646 NAND3X1_183
*1647 NAND3X1_171
*1648 NAND3X1_167
*1649 NAND3X1_186
*1650 NAND3X1_99
*1651 NAND3X1_245
*1652 _1603__bF_buf1
*1653 BUFX4_60
*1654 NAND3X1_249
*1655 NAND3X1_204
*1656 NAND3X1_101
*1657 NAND3X1_96
*1658 NAND3X1_143
*1659 NAND3X1_147
*1660 NAND3X1_165
*1661 NAND3X1_208
*1662 _1603__bF_buf0
*1663 BUFX4_61
*1664 NAND3X1_215
*1665 NAND3X1_219
*1666 NAND3X1_129
*1667 NAND3X1_114
*1668 NAND3X1_225
*1669 NAND3X1_239
*1670 NAND3X1_243
*1671 NAND3X1_221
*1672 _1600__bF_buf5
*1673 BUFX4_71
*1674 NAND3X1_219
*1675 NAND3X1_215
*1676 NAND3X1_114
*1677 NAND3X1_225
*1678 NAND3X1_129
*1679 NAND3X1_239
*1680 NAND3X1_243
*1681 NAND3X1_221
*1682 _1600__bF_buf4
*1683 BUFX4_72
*1684 NAND3X1_249
*1685 NAND3X1_204
*1686 NAND3X1_143
*1687 NAND3X1_101
*1688 NAND3X1_96
*1689 NAND3X1_147
*1690 NAND3X1_165
*1691 NAND3X1_208
*1692 _1600__bF_buf3
*1693 BUFX4_73
*1694 NAND3X1_173
*1695 NAND3X1_92
*1696 NAND3X1_198
*1697 NAND3X1_161
*1698 NAND3X1_118
*1699 NAND3X1_177
*1700 NAND3X1_202
*1701 NAND3X1_131
*1702 _1600__bF_buf2
*1703 BUFX4_74
*1704 NAND3X1_120
*1705 NAND3X1_124
*1706 NAND3X1_183
*1707 NAND3X1_171
*1708 NAND3X1_167
*1709 NAND3X1_186
*1710 NAND3X1_99
*1711 NAND3X1_245
*1712 _1600__bF_buf1
*1713 BUFX4_75
*1714 NAND3X1_233
*1715 NAND3X1_237
*1716 NAND3X1_231
*1717 NAND3X1_110
*1718 NAND3X1_150
*1719 NAND3X1_154
*1720 NAND3X1_196
*1721 NAND3X1_112
*1722 _1600__bF_buf0
*1723 BUFX4_76
*1724 NAND3X1_190
*1725 NAND3X1_135
*1726 NAND3X1_139
*1727 NAND3X1_179
*1728 NAND3X1_107
*1729 NAND3X1_106
*1730 NAND3X1_227
*1731 NAND3X1_192
*1732 wb_sel_i[3_bF_buf6]
*1733 BUFX4_86
*1734 OAI21X1_7
*1735 NAND2X1_8
*1736 NAND2X1_1
*1737 NAND2X1_159
*1738 OAI21X1_590
*1739 OAI21X1_423
*1740 OAI21X1_517
*1741 OAI21X1_353
*1742 wb_sel_i[3_bF_buf5]
*1743 BUFX4_87
*1744 NAND2X1_153
*1745 OAI21X1_361
*1746 OAI21X1_427
*1747 OAI21X1_520
*1748 NAND2X1_5
*1749 MUX2X1_23
*1750 OAI21X1_1
*1751 OAI21X1_15
*1752 wb_sel_i[3_bF_buf4]
*1753 BUFX4_88
*1754 MUX2X1_25
*1755 OAI21X1_522
*1756 OAI21X1_431
*1757 OAI21X1_355
*1758 NAND2X1_2
*1759 OAI21X1_9
*1760 NAND2X1_147
*1761 NAND2X1_161
*1762 wb_sel_i[3_bF_buf3]
*1763 BUFX4_89
*1764 NAND2X1_155
*1765 OAI21X1_525
*1766 OAI21X1_435
*1767 OAI21X1_363
*1768 OAI21X1_349
*1769 OAI21X1_3
*1770 MUX2X1_27
*1771 NAND2X1_6
*1772 wb_sel_i[3_bF_buf2]
*1773 BUFX4_90
*1774 NAND2X1_149
*1775 OAI21X1_508
*1776 OAI21X1_411
*1777 OAI21X1_665
*1778 OAI21X1_357
*1779 MUX2X1_17
*1780 NAND2X1_3
*1781 OAI21X1_11
*1782 wb_sel_i[3_bF_buf1]
*1783 BUFX4_91
*1784 OAI21X1_511
*1785 OAI21X1_415
*1786 OAI21X1_672
*1787 OAI21X1_351
*1788 MUX2X1_19
*1789 NAND2X1_157
*1790 NAND2X1_7
*1791 OAI21X1_5