*SPICE netlist created from BLIF module spi_top by blif2BSpice
.include /usr/share/qflow/tech/osu018/osu018_stdcells.sp
.subckt spi_top vdd gnd wb_clk_i wb_rst_i wb_adr_i[0] wb_adr_i[1] wb_adr_i[2] wb_adr_i[3] wb_adr_i[4] wb_dat_i[0] wb_dat_i[1] wb_dat_i[2] wb_dat_i[3] wb_dat_i[4] wb_dat_i[5] wb_dat_i[6] wb_dat_i[7] wb_dat_i[8] wb_dat_i[9] wb_dat_i[10] wb_dat_i[11] wb_dat_i[12] wb_dat_i[13] wb_dat_i[14] wb_dat_i[15] wb_dat_i[16] wb_dat_i[17] wb_dat_i[18] wb_dat_i[19] wb_dat_i[20] wb_dat_i[21] wb_dat_i[22] wb_dat_i[23] wb_dat_i[24] wb_dat_i[25] wb_dat_i[26] wb_dat_i[27] wb_dat_i[28] wb_dat_i[29] wb_dat_i[30] wb_dat_i[31] wb_sel_i[0] wb_sel_i[1] wb_sel_i[2] wb_sel_i[3] wb_we_i wb_stb_i wb_cyc_i miso_pad_i wb_dat_o[0] wb_dat_o[1] wb_dat_o[2] wb_dat_o[3] wb_dat_o[4] wb_dat_o[5] wb_dat_o[6] wb_dat_o[7] wb_dat_o[8] wb_dat_o[9] wb_dat_o[10] wb_dat_o[11] wb_dat_o[12] wb_dat_o[13] wb_dat_o[14] wb_dat_o[15] wb_dat_o[16] wb_dat_o[17] wb_dat_o[18] wb_dat_o[19] wb_dat_o[20] wb_dat_o[21] wb_dat_o[22] wb_dat_o[23] wb_dat_o[24] wb_dat_o[25] wb_dat_o[26] wb_dat_o[27] wb_dat_o[28] wb_dat_o[29] wb_dat_o[30] wb_dat_o[31] wb_ack_o wb_err_o wb_int_o ss_pad_o[0] ss_pad_o[1] ss_pad_o[2] ss_pad_o[3] ss_pad_o[4] ss_pad_o[5] ss_pad_o[6] ss_pad_o[7] ss_pad_o[8] ss_pad_o[9] ss_pad_o[10] ss_pad_o[11] ss_pad_o[12] ss_pad_o[13] ss_pad_o[14] ss_pad_o[15] ss_pad_o[16] ss_pad_o[17] ss_pad_o[18] ss_pad_o[19] ss_pad_o[20] ss_pad_o[21] ss_pad_o[22] ss_pad_o[23] ss_pad_o[24] ss_pad_o[25] ss_pad_o[26] ss_pad_o[27] ss_pad_o[28] ss_pad_o[29] ss_pad_o[30] ss_pad_o[31] sclk_pad_o mosi_pad_o 
XCLKBUF1_1 wb_clk_i_bF$buf10 vdd gnd wb_clk_i_bF$buf10_bF$buf3 CLKBUF1
XCLKBUF1_2 wb_clk_i_bF$buf10 vdd gnd wb_clk_i_bF$buf10_bF$buf2 CLKBUF1
XCLKBUF1_3 wb_clk_i_bF$buf10 vdd gnd wb_clk_i_bF$buf10_bF$buf1 CLKBUF1
XCLKBUF1_4 wb_clk_i_bF$buf10 vdd gnd wb_clk_i_bF$buf10_bF$buf0 CLKBUF1
XCLKBUF1_5 wb_clk_i_bF$buf11 vdd gnd wb_clk_i_bF$buf11_bF$buf3 CLKBUF1
XCLKBUF1_6 wb_clk_i_bF$buf11 vdd gnd wb_clk_i_bF$buf11_bF$buf2 CLKBUF1
XCLKBUF1_7 wb_clk_i_bF$buf11 vdd gnd wb_clk_i_bF$buf11_bF$buf1 CLKBUF1
XCLKBUF1_8 wb_clk_i_bF$buf11 vdd gnd wb_clk_i_bF$buf11_bF$buf0 CLKBUF1
XCLKBUF1_9 wb_clk_i_bF$buf12 vdd gnd wb_clk_i_bF$buf12_bF$buf3 CLKBUF1
XCLKBUF1_10 wb_clk_i_bF$buf12 vdd gnd wb_clk_i_bF$buf12_bF$buf2 CLKBUF1
XCLKBUF1_11 wb_clk_i_bF$buf12 vdd gnd wb_clk_i_bF$buf12_bF$buf1 CLKBUF1
XCLKBUF1_12 wb_clk_i_bF$buf12 vdd gnd wb_clk_i_bF$buf12_bF$buf0 CLKBUF1
XCLKBUF1_13 wb_clk_i_bF$buf13 vdd gnd wb_clk_i_bF$buf13_bF$buf3 CLKBUF1
XCLKBUF1_14 wb_clk_i_bF$buf13 vdd gnd wb_clk_i_bF$buf13_bF$buf2 CLKBUF1
XCLKBUF1_15 wb_clk_i_bF$buf13 vdd gnd wb_clk_i_bF$buf13_bF$buf1 CLKBUF1
XCLKBUF1_16 wb_clk_i_bF$buf13 vdd gnd wb_clk_i_bF$buf13_bF$buf0 CLKBUF1
XCLKBUF1_17 wb_clk_i_bF$buf14 vdd gnd wb_clk_i_bF$buf14_bF$buf3 CLKBUF1
XCLKBUF1_18 wb_clk_i_bF$buf14 vdd gnd wb_clk_i_bF$buf14_bF$buf2 CLKBUF1
XCLKBUF1_19 wb_clk_i_bF$buf14 vdd gnd wb_clk_i_bF$buf14_bF$buf1 CLKBUF1
XCLKBUF1_20 wb_clk_i_bF$buf14 vdd gnd wb_clk_i_bF$buf14_bF$buf0 CLKBUF1
XCLKBUF1_21 wb_clk_i_bF$buf2 vdd gnd wb_clk_i_bF$buf2_bF$buf3 CLKBUF1
XCLKBUF1_22 wb_clk_i_bF$buf2 vdd gnd wb_clk_i_bF$buf2_bF$buf2 CLKBUF1
XCLKBUF1_23 wb_clk_i_bF$buf2 vdd gnd wb_clk_i_bF$buf2_bF$buf1 CLKBUF1
XCLKBUF1_24 wb_clk_i_bF$buf2 vdd gnd wb_clk_i_bF$buf2_bF$buf0 CLKBUF1
XCLKBUF1_25 wb_clk_i_bF$buf3 vdd gnd wb_clk_i_bF$buf3_bF$buf3 CLKBUF1
XCLKBUF1_26 wb_clk_i_bF$buf3 vdd gnd wb_clk_i_bF$buf3_bF$buf2 CLKBUF1
XCLKBUF1_27 wb_clk_i_bF$buf3 vdd gnd wb_clk_i_bF$buf3_bF$buf1 CLKBUF1
XCLKBUF1_28 wb_clk_i_bF$buf3 vdd gnd wb_clk_i_bF$buf3_bF$buf0 CLKBUF1
XCLKBUF1_29 wb_clk_i_bF$buf4 vdd gnd wb_clk_i_bF$buf4_bF$buf3 CLKBUF1
XCLKBUF1_30 wb_clk_i_bF$buf4 vdd gnd wb_clk_i_bF$buf4_bF$buf2 CLKBUF1
XCLKBUF1_31 wb_clk_i_bF$buf4 vdd gnd wb_clk_i_bF$buf4_bF$buf1 CLKBUF1
XCLKBUF1_32 wb_clk_i_bF$buf4 vdd gnd wb_clk_i_bF$buf4_bF$buf0 CLKBUF1
XCLKBUF1_33 wb_clk_i_bF$buf5 vdd gnd wb_clk_i_bF$buf5_bF$buf3 CLKBUF1
XCLKBUF1_34 wb_clk_i_bF$buf5 vdd gnd wb_clk_i_bF$buf5_bF$buf2 CLKBUF1
XCLKBUF1_35 wb_clk_i_bF$buf5 vdd gnd wb_clk_i_bF$buf5_bF$buf1 CLKBUF1
XCLKBUF1_36 wb_clk_i_bF$buf5 vdd gnd wb_clk_i_bF$buf5_bF$buf0 CLKBUF1
XCLKBUF1_37 wb_clk_i_bF$buf6 vdd gnd wb_clk_i_bF$buf6_bF$buf3 CLKBUF1
XCLKBUF1_38 wb_clk_i_bF$buf6 vdd gnd wb_clk_i_bF$buf6_bF$buf2 CLKBUF1
XCLKBUF1_39 wb_clk_i_bF$buf6 vdd gnd wb_clk_i_bF$buf6_bF$buf1 CLKBUF1
XCLKBUF1_40 wb_clk_i_bF$buf6 vdd gnd wb_clk_i_bF$buf6_bF$buf0 CLKBUF1
XCLKBUF1_41 wb_clk_i_bF$buf7 vdd gnd wb_clk_i_bF$buf7_bF$buf3 CLKBUF1
XCLKBUF1_42 wb_clk_i_bF$buf7 vdd gnd wb_clk_i_bF$buf7_bF$buf2 CLKBUF1
XCLKBUF1_43 wb_clk_i_bF$buf7 vdd gnd wb_clk_i_bF$buf7_bF$buf1 CLKBUF1
XCLKBUF1_44 wb_clk_i_bF$buf7 vdd gnd wb_clk_i_bF$buf7_bF$buf0 CLKBUF1
XCLKBUF1_45 wb_clk_i_bF$buf8 vdd gnd wb_clk_i_bF$buf8_bF$buf3 CLKBUF1
XCLKBUF1_46 wb_clk_i_bF$buf8 vdd gnd wb_clk_i_bF$buf8_bF$buf2 CLKBUF1
XCLKBUF1_47 wb_clk_i_bF$buf8 vdd gnd wb_clk_i_bF$buf8_bF$buf1 CLKBUF1
XCLKBUF1_48 wb_clk_i_bF$buf8 vdd gnd wb_clk_i_bF$buf8_bF$buf0 CLKBUF1
XCLKBUF1_49 wb_clk_i_bF$buf9 vdd gnd wb_clk_i_bF$buf9_bF$buf3 CLKBUF1
XCLKBUF1_50 wb_clk_i_bF$buf9 vdd gnd wb_clk_i_bF$buf9_bF$buf2 CLKBUF1
XCLKBUF1_51 wb_clk_i_bF$buf9 vdd gnd wb_clk_i_bF$buf9_bF$buf1 CLKBUF1
XCLKBUF1_52 wb_clk_i_bF$buf9 vdd gnd wb_clk_i_bF$buf9_bF$buf0 CLKBUF1
XBUFX4_1 vdd gnd _1066_ _1066__bF$buf6 BUFX4
XBUFX4_2 vdd gnd _1066_ _1066__bF$buf5 BUFX4
XBUFX4_3 vdd gnd _1066_ _1066__bF$buf4 BUFX4
XBUFX4_4 vdd gnd _1066_ _1066__bF$buf3 BUFX4
XBUFX4_5 vdd gnd _1066_ _1066__bF$buf2 BUFX4
XBUFX4_6 vdd gnd _1066_ _1066__bF$buf1 BUFX4
XBUFX4_7 vdd gnd _1066_ _1066__bF$buf0 BUFX4
XBUFX4_8 vdd gnd _547_ _547__bF$buf10 BUFX4
XBUFX4_9 vdd gnd _547_ _547__bF$buf9 BUFX4
XBUFX4_10 vdd gnd _547_ _547__bF$buf8 BUFX4
XBUFX4_11 vdd gnd _547_ _547__bF$buf7 BUFX4
XBUFX4_12 vdd gnd _547_ _547__bF$buf6 BUFX4
XBUFX4_13 vdd gnd _547_ _547__bF$buf5 BUFX4
XBUFX4_14 vdd gnd _547_ _547__bF$buf4 BUFX4
XBUFX4_15 vdd gnd _547_ _547__bF$buf3 BUFX4
XBUFX4_16 vdd gnd _547_ _547__bF$buf2 BUFX4
XBUFX4_17 vdd gnd _547_ _547__bF$buf1 BUFX4
XBUFX4_18 vdd gnd _547_ _547__bF$buf0 BUFX4
XBUFX4_19 vdd gnd wb_sel_i[1] wb_sel_i[1_bF$buf7] BUFX4
XBUFX4_20 vdd gnd wb_sel_i[1] wb_sel_i[1_bF$buf6] BUFX4
XBUFX4_21 vdd gnd wb_sel_i[1] wb_sel_i[1_bF$buf5] BUFX4
XBUFX4_22 vdd gnd wb_sel_i[1] wb_sel_i[1_bF$buf4] BUFX4
XBUFX4_23 vdd gnd wb_sel_i[1] wb_sel_i[1_bF$buf3] BUFX4
XBUFX4_24 vdd gnd wb_sel_i[1] wb_sel_i[1_bF$buf2] BUFX4
XBUFX4_25 vdd gnd wb_sel_i[1] wb_sel_i[1_bF$buf1] BUFX4
XBUFX4_26 vdd gnd wb_sel_i[1] wb_sel_i[1_bF$buf0] BUFX4
XBUFX4_27 vdd gnd _156_ _156__bF$buf4 BUFX4
XBUFX4_28 vdd gnd _156_ _156__bF$buf3 BUFX4
XBUFX4_29 vdd gnd _156_ _156__bF$buf2 BUFX4
XBUFX4_30 vdd gnd _156_ _156__bF$buf1 BUFX4
XBUFX4_31 vdd gnd _156_ _156__bF$buf0 BUFX4
XBUFX4_32 vdd gnd _2094_ _2094__bF$buf3 BUFX4
XBUFX4_33 vdd gnd _2094_ _2094__bF$buf2 BUFX4
XBUFX4_34 vdd gnd _2094_ _2094__bF$buf1 BUFX4
XBUFX4_35 vdd gnd _2094_ _2094__bF$buf0 BUFX4
XBUFX4_36 vdd gnd _2091_ _2091__bF$buf3 BUFX4
XBUFX4_37 vdd gnd _2091_ _2091__bF$buf2 BUFX4
XBUFX4_38 vdd gnd _2091_ _2091__bF$buf1 BUFX4
XBUFX4_39 vdd gnd _2091_ _2091__bF$buf0 BUFX4
XBUFX4_40 vdd gnd _693_ _693__bF$buf5 BUFX4
XBUFX4_41 vdd gnd _693_ _693__bF$buf4 BUFX4
XBUFX4_42 vdd gnd _693_ _693__bF$buf3 BUFX4
XBUFX4_43 vdd gnd _693_ _693__bF$buf2 BUFX4
XBUFX4_44 vdd gnd _693_ _693__bF$buf1 BUFX4
XBUFX4_45 vdd gnd _693_ _693__bF$buf0 BUFX4
XBUFX4_46 vdd gnd _1606_ _1606__bF$buf5 BUFX4
XBUFX4_47 vdd gnd _1606_ _1606__bF$buf4 BUFX4
XBUFX4_48 vdd gnd _1606_ _1606__bF$buf3 BUFX4
XBUFX4_49 vdd gnd _1606_ _1606__bF$buf2 BUFX4
XBUFX4_50 vdd gnd _1606_ _1606__bF$buf1 BUFX4
XBUFX4_51 vdd gnd _1606_ _1606__bF$buf0 BUFX4
XBUFX4_52 vdd gnd _687_ _687__bF$buf3 BUFX4
XBUFX4_53 vdd gnd _687_ _687__bF$buf2 BUFX4
XBUFX4_54 vdd gnd _687_ _687__bF$buf1 BUFX4
XBUFX4_55 vdd gnd _687_ _687__bF$buf0 BUFX4
XBUFX4_56 vdd gnd _1603_ _1603__bF$buf5 BUFX4
XBUFX4_57 vdd gnd _1603_ _1603__bF$buf4 BUFX4
XBUFX4_58 vdd gnd _1603_ _1603__bF$buf3 BUFX4
XBUFX4_59 vdd gnd _1603_ _1603__bF$buf2 BUFX4
XBUFX4_60 vdd gnd _1603_ _1603__bF$buf1 BUFX4
XBUFX4_61 vdd gnd _1603_ _1603__bF$buf0 BUFX4
XBUFX4_62 vdd gnd _1582_ _1582__bF$buf4 BUFX4
XBUFX4_63 vdd gnd _1582_ _1582__bF$buf3 BUFX4
XBUFX4_64 vdd gnd _1582_ _1582__bF$buf2 BUFX4
XBUFX4_65 vdd gnd _1582_ _1582__bF$buf1 BUFX4
XBUFX4_66 vdd gnd _1582_ _1582__bF$buf0 BUFX4
XBUFX4_67 vdd gnd _358_ _358__bF$buf3 BUFX4
XBUFX4_68 vdd gnd _358_ _358__bF$buf2 BUFX4
XBUFX4_69 vdd gnd _358_ _358__bF$buf1 BUFX4
XBUFX4_70 vdd gnd _358_ _358__bF$buf0 BUFX4
XBUFX4_71 vdd gnd _1600_ _1600__bF$buf5 BUFX4
XBUFX4_72 vdd gnd _1600_ _1600__bF$buf4 BUFX4
XBUFX4_73 vdd gnd _1600_ _1600__bF$buf3 BUFX4
XBUFX4_74 vdd gnd _1600_ _1600__bF$buf2 BUFX4
XBUFX4_75 vdd gnd _1600_ _1600__bF$buf1 BUFX4
XBUFX4_76 vdd gnd _1600_ _1600__bF$buf0 BUFX4
XBUFX4_77 vdd gnd _2041_ _2041__bF$buf3 BUFX4
XBUFX4_78 vdd gnd _2041_ _2041__bF$buf2 BUFX4
XBUFX4_79 vdd gnd _2041_ _2041__bF$buf1 BUFX4
XBUFX4_80 vdd gnd _2041_ _2041__bF$buf0 BUFX4
XBUFX4_81 vdd gnd _1576_ _1576__bF$buf4 BUFX4
XBUFX4_82 vdd gnd _1576_ _1576__bF$buf3 BUFX4
XBUFX4_83 vdd gnd _1576_ _1576__bF$buf2 BUFX4
XBUFX4_84 vdd gnd _1576_ _1576__bF$buf1 BUFX4
XBUFX4_85 vdd gnd _1576_ _1576__bF$buf0 BUFX4
XBUFX4_86 vdd gnd wb_sel_i[3] wb_sel_i[3_bF$buf6] BUFX4
XBUFX4_87 vdd gnd wb_sel_i[3] wb_sel_i[3_bF$buf5] BUFX4
XBUFX4_88 vdd gnd wb_sel_i[3] wb_sel_i[3_bF$buf4] BUFX4
XBUFX4_89 vdd gnd wb_sel_i[3] wb_sel_i[3_bF$buf3] BUFX4
XBUFX4_90 vdd gnd wb_sel_i[3] wb_sel_i[3_bF$buf2] BUFX4
XBUFX4_91 vdd gnd wb_sel_i[3] wb_sel_i[3_bF$buf1] BUFX4
XBUFX4_92 vdd gnd wb_sel_i[3] wb_sel_i[3_bF$buf0] BUFX4
XBUFX4_93 vdd gnd _9_ _9__bF$buf6 BUFX4
XBUFX4_94 vdd gnd _9_ _9__bF$buf5 BUFX4
XBUFX4_95 vdd gnd _9_ _9__bF$buf4 BUFX4
XBUFX4_96 vdd gnd _9_ _9__bF$buf3 BUFX4
XBUFX4_97 vdd gnd _9_ _9__bF$buf2 BUFX4
XBUFX4_98 vdd gnd _9_ _9__bF$buf1 BUFX4
XBUFX4_99 vdd gnd _9_ _9__bF$buf0 BUFX4
XBUFX4_100 vdd gnd _12_ _12__bF$buf4 BUFX4
XBUFX4_101 vdd gnd _12_ _12__bF$buf3 BUFX4
XBUFX4_102 vdd gnd _12_ _12__bF$buf2 BUFX4
XBUFX4_103 vdd gnd _12_ _12__bF$buf1 BUFX4
XBUFX4_104 vdd gnd _12_ _12__bF$buf0 BUFX4
XBUFX4_105 vdd gnd wb_sel_i[0] wb_sel_i[0_bF$buf7] BUFX4
XBUFX4_106 vdd gnd wb_sel_i[0] wb_sel_i[0_bF$buf6] BUFX4
XBUFX4_107 vdd gnd wb_sel_i[0] wb_sel_i[0_bF$buf5] BUFX4
XBUFX4_108 vdd gnd wb_sel_i[0] wb_sel_i[0_bF$buf4] BUFX4
XBUFX4_109 vdd gnd wb_sel_i[0] wb_sel_i[0_bF$buf3] BUFX4
XBUFX4_110 vdd gnd wb_sel_i[0] wb_sel_i[0_bF$buf2] BUFX4
XBUFX4_111 vdd gnd wb_sel_i[0] wb_sel_i[0_bF$buf1] BUFX4
XBUFX4_112 vdd gnd wb_sel_i[0] wb_sel_i[0_bF$buf0] BUFX4
XCLKBUF1_53 wb_clk_i vdd gnd wb_clk_i_bF$buf14 CLKBUF1
XCLKBUF1_54 wb_clk_i vdd gnd wb_clk_i_bF$buf13 CLKBUF1
XCLKBUF1_55 wb_clk_i vdd gnd wb_clk_i_bF$buf12 CLKBUF1
XCLKBUF1_56 wb_clk_i vdd gnd wb_clk_i_bF$buf11 CLKBUF1
XCLKBUF1_57 wb_clk_i vdd gnd wb_clk_i_bF$buf10 CLKBUF1
XCLKBUF1_58 wb_clk_i vdd gnd wb_clk_i_bF$buf9 CLKBUF1
XCLKBUF1_59 wb_clk_i vdd gnd wb_clk_i_bF$buf8 CLKBUF1
XCLKBUF1_60 wb_clk_i vdd gnd wb_clk_i_bF$buf7 CLKBUF1
XCLKBUF1_61 wb_clk_i vdd gnd wb_clk_i_bF$buf6 CLKBUF1
XCLKBUF1_62 wb_clk_i vdd gnd wb_clk_i_bF$buf5 CLKBUF1
XCLKBUF1_63 wb_clk_i vdd gnd wb_clk_i_bF$buf4 CLKBUF1
XCLKBUF1_64 wb_clk_i vdd gnd wb_clk_i_bF$buf3 CLKBUF1
XCLKBUF1_65 wb_clk_i vdd gnd wb_clk_i_bF$buf2 CLKBUF1
XCLKBUF1_66 wb_clk_i vdd gnd wb_clk_i_bF$buf1 CLKBUF1
XCLKBUF1_67 wb_clk_i vdd gnd wb_clk_i_bF$buf0 CLKBUF1
XBUFX4_113 vdd gnd _249_ _249__bF$buf4 BUFX4
XBUFX4_114 vdd gnd _249_ _249__bF$buf3 BUFX4
XBUFX4_115 vdd gnd _249_ _249__bF$buf2 BUFX4
XBUFX4_116 vdd gnd _249_ _249__bF$buf1 BUFX4
XBUFX4_117 vdd gnd _249_ _249__bF$buf0 BUFX4
XBUFX4_118 vdd gnd clgen.enable clgen.enable_bF$buf9 BUFX4
XBUFX4_119 vdd gnd clgen.enable clgen.enable_bF$buf8 BUFX4
XBUFX4_120 vdd gnd clgen.enable clgen.enable_bF$buf7 BUFX4
XBUFX4_121 vdd gnd clgen.enable clgen.enable_bF$buf6 BUFX4
XBUFX4_122 vdd gnd clgen.enable clgen.enable_bF$buf5 BUFX4
XBUFX4_123 vdd gnd clgen.enable clgen.enable_bF$buf4 BUFX4
XBUFX4_124 vdd gnd clgen.enable clgen.enable_bF$buf3 BUFX4
XBUFX4_125 vdd gnd clgen.enable clgen.enable_bF$buf2 BUFX4
XBUFX4_126 vdd gnd clgen.enable clgen.enable_bF$buf1 BUFX4
XBUFX4_127 vdd gnd clgen.enable clgen.enable_bF$buf0 BUFX4
XBUFX4_128 vdd gnd _190_ _190__bF$buf3 BUFX4
XBUFX4_129 vdd gnd _190_ _190__bF$buf2 BUFX4
XBUFX4_130 vdd gnd _190_ _190__bF$buf1 BUFX4
XBUFX4_131 vdd gnd _190_ _190__bF$buf0 BUFX4
XBUFX4_132 vdd gnd _243_ _243__bF$buf3 BUFX4
XBUFX4_133 vdd gnd _243_ _243__bF$buf2 BUFX4
XBUFX4_134 vdd gnd _243_ _243__bF$buf1 BUFX4
XBUFX4_135 vdd gnd _243_ _243__bF$buf0 BUFX4
XBUFX4_136 vdd gnd _1561_ _1561__bF$buf6 BUFX4
XBUFX4_137 vdd gnd _1561_ _1561__bF$buf5 BUFX4
XBUFX4_138 vdd gnd _1561_ _1561__bF$buf4 BUFX4
XBUFX4_139 vdd gnd _1561_ _1561__bF$buf3 BUFX4
XBUFX4_140 vdd gnd _1561_ _1561__bF$buf2 BUFX4
XBUFX4_141 vdd gnd _1561_ _1561__bF$buf1 BUFX4
XBUFX4_142 vdd gnd _1561_ _1561__bF$buf0 BUFX4
XBUFX4_143 vdd gnd _789_ _789__bF$buf3 BUFX4
XBUFX4_144 vdd gnd _789_ _789__bF$buf2 BUFX4
XBUFX4_145 vdd gnd _789_ _789__bF$buf1 BUFX4
XBUFX4_146 vdd gnd _789_ _789__bF$buf0 BUFX4
XBUFX4_147 vdd gnd _1073_ _1073__bF$buf4 BUFX4
XBUFX4_148 vdd gnd _1073_ _1073__bF$buf3 BUFX4
XBUFX4_149 vdd gnd _1073_ _1073__bF$buf2 BUFX4
XBUFX4_150 vdd gnd _1073_ _1073__bF$buf1 BUFX4
XBUFX4_151 vdd gnd _1073_ _1073__bF$buf0 BUFX4
XBUFX4_152 vdd gnd _686_ _686__bF$buf8 BUFX4
XBUFX4_153 vdd gnd _686_ _686__bF$buf7 BUFX4
XBUFX4_154 vdd gnd _686_ _686__bF$buf6 BUFX4
XBUFX4_155 vdd gnd _686_ _686__bF$buf5 BUFX4
XBUFX4_156 vdd gnd _686_ _686__bF$buf4 BUFX4
XBUFX4_157 vdd gnd _686_ _686__bF$buf3 BUFX4
XBUFX4_158 vdd gnd _686_ _686__bF$buf2 BUFX4
XBUFX4_159 vdd gnd _686_ _686__bF$buf1 BUFX4
XBUFX4_160 vdd gnd _686_ _686__bF$buf0 BUFX4
XBUFX4_161 vdd gnd _1067_ _1067__bF$buf6 BUFX4
XBUFX4_162 vdd gnd _1067_ _1067__bF$buf5 BUFX4
XBUFX4_163 vdd gnd _1067_ _1067__bF$buf4 BUFX4
XBUFX4_164 vdd gnd _1067_ _1067__bF$buf3 BUFX4
XBUFX4_165 vdd gnd _1067_ _1067__bF$buf2 BUFX4
XBUFX4_166 vdd gnd _1067_ _1067__bF$buf1 BUFX4
XBUFX4_167 vdd gnd _1067_ _1067__bF$buf0 BUFX4
XBUFX4_168 vdd gnd _2081_ _2081__bF$buf3 BUFX4
XBUFX4_169 vdd gnd _2081_ _2081__bF$buf2 BUFX4
XBUFX4_170 vdd gnd _2081_ _2081__bF$buf1 BUFX4
XBUFX4_171 vdd gnd _2081_ _2081__bF$buf0 BUFX4
XBUFX4_172 vdd gnd _2078_ _2078__bF$buf7 BUFX4
XBUFX4_173 vdd gnd _2078_ _2078__bF$buf6 BUFX4
XBUFX4_174 vdd gnd _2078_ _2078__bF$buf5 BUFX4
XBUFX4_175 vdd gnd _2078_ _2078__bF$buf4 BUFX4
XBUFX4_176 vdd gnd _2078_ _2078__bF$buf3 BUFX4
XBUFX4_177 vdd gnd _2078_ _2078__bF$buf2 BUFX4
XBUFX4_178 vdd gnd _2078_ _2078__bF$buf1 BUFX4
XBUFX4_179 vdd gnd _2078_ _2078__bF$buf0 BUFX4
XBUFX4_180 vdd gnd _1502_ _1502__bF$buf3 BUFX4
XBUFX4_181 vdd gnd _1502_ _1502__bF$buf2 BUFX4
XBUFX4_182 vdd gnd _1502_ _1502__bF$buf1 BUFX4
XBUFX4_183 vdd gnd _1502_ _1502__bF$buf0 BUFX4
XBUFX4_184 vdd gnd wb_sel_i[2] wb_sel_i[2_bF$buf6] BUFX4
XBUFX4_185 vdd gnd wb_sel_i[2] wb_sel_i[2_bF$buf5] BUFX4
XBUFX4_186 vdd gnd wb_sel_i[2] wb_sel_i[2_bF$buf4] BUFX4
XBUFX4_187 vdd gnd wb_sel_i[2] wb_sel_i[2_bF$buf3] BUFX4
XBUFX4_188 vdd gnd wb_sel_i[2] wb_sel_i[2_bF$buf2] BUFX4
XBUFX4_189 vdd gnd wb_sel_i[2] wb_sel_i[2_bF$buf1] BUFX4
XBUFX4_190 vdd gnd wb_sel_i[2] wb_sel_i[2_bF$buf0] BUFX4
XBUFX4_191 vdd gnd _8_ _8__bF$buf3 BUFX4
XBUFX4_192 vdd gnd _8_ _8__bF$buf2 BUFX4
XBUFX4_193 vdd gnd _8_ _8__bF$buf1 BUFX4
XBUFX4_194 vdd gnd _8_ _8__bF$buf0 BUFX4
XBUFX4_195 vdd gnd _11_ _11__bF$buf7 BUFX4
XBUFX4_196 vdd gnd _11_ _11__bF$buf6 BUFX4
XBUFX4_197 vdd gnd _11_ _11__bF$buf5 BUFX4
XBUFX4_198 vdd gnd _11_ _11__bF$buf4 BUFX4
XBUFX4_199 vdd gnd _11_ _11__bF$buf3 BUFX4
XBUFX4_200 vdd gnd _11_ _11__bF$buf2 BUFX4
XBUFX4_201 vdd gnd _11_ _11__bF$buf1 BUFX4
XBUFX4_202 vdd gnd _11_ _11__bF$buf0 BUFX4
XBUFX4_203 vdd gnd _1569_ _1569__bF$buf4 BUFX4
XBUFX4_204 vdd gnd _1569_ _1569__bF$buf3 BUFX4
XBUFX4_205 vdd gnd _1569_ _1569__bF$buf2 BUFX4
XBUFX4_206 vdd gnd _1569_ _1569__bF$buf1 BUFX4
XBUFX4_207 vdd gnd _1569_ _1569__bF$buf0 BUFX4
XBUFX4_208 vdd gnd _5_ _5__bF$buf8 BUFX4
XBUFX4_209 vdd gnd _5_ _5__bF$buf7 BUFX4
XBUFX4_210 vdd gnd _5_ _5__bF$buf6 BUFX4
XBUFX4_211 vdd gnd _5_ _5__bF$buf5 BUFX4
XBUFX4_212 vdd gnd _5_ _5__bF$buf4 BUFX4
XBUFX4_213 vdd gnd _5_ _5__bF$buf3 BUFX4
XBUFX4_214 vdd gnd _5_ _5__bF$buf2 BUFX4
XBUFX4_215 vdd gnd _5_ _5__bF$buf1 BUFX4
XBUFX4_216 vdd gnd _5_ _5__bF$buf0 BUFX4
XBUFX4_217 vdd gnd _189_ _189__bF$buf3 BUFX4
XBUFX4_218 vdd gnd _189_ _189__bF$buf2 BUFX4
XBUFX4_219 vdd gnd _189_ _189__bF$buf1 BUFX4
XBUFX4_220 vdd gnd _189_ _189__bF$buf0 BUFX4
XBUFX4_221 vdd gnd _2025_ _2025__bF$buf7 BUFX4
XBUFX4_222 vdd gnd _2025_ _2025__bF$buf6 BUFX4
XBUFX4_223 vdd gnd _2025_ _2025__bF$buf5 BUFX4
XBUFX4_224 vdd gnd _2025_ _2025__bF$buf4 BUFX4
XBUFX4_225 vdd gnd _2025_ _2025__bF$buf3 BUFX4
XBUFX4_226 vdd gnd _2025_ _2025__bF$buf2 BUFX4
XBUFX4_227 vdd gnd _2025_ _2025__bF$buf1 BUFX4
XBUFX4_228 vdd gnd _2025_ _2025__bF$buf0 BUFX4
XBUFX4_229 vdd gnd _912_ _912__bF$buf5 BUFX4
XBUFX4_230 vdd gnd _912_ _912__bF$buf4 BUFX4
XBUFX4_231 vdd gnd _912_ _912__bF$buf3 BUFX4
XBUFX4_232 vdd gnd _912_ _912__bF$buf2 BUFX4
XBUFX4_233 vdd gnd _912_ _912__bF$buf1 BUFX4
XBUFX4_234 vdd gnd _912_ _912__bF$buf0 BUFX4
XBUFX4_235 vdd gnd _433_ _433__bF$buf3 BUFX4
XBUFX4_236 vdd gnd _433_ _433__bF$buf2 BUFX4
XBUFX4_237 vdd gnd _433_ _433__bF$buf1 BUFX4
XBUFX4_238 vdd gnd _433_ _433__bF$buf0 BUFX4
XBUFX4_239 vdd gnd _242_ _242__bF$buf3 BUFX4
XBUFX4_240 vdd gnd _242_ _242__bF$buf2 BUFX4
XBUFX4_241 vdd gnd _242_ _242__bF$buf1 BUFX4
XBUFX4_242 vdd gnd _242_ _242__bF$buf0 BUFX4
XBUFX4_243 vdd gnd _694_ _694__bF$buf7 BUFX4
XBUFX4_244 vdd gnd _694_ _694__bF$buf6 BUFX4
XBUFX4_245 vdd gnd _694_ _694__bF$buf5 BUFX4
XBUFX4_246 vdd gnd _694_ _694__bF$buf4 BUFX4
XBUFX4_247 vdd gnd _694_ _694__bF$buf3 BUFX4
XBUFX4_248 vdd gnd _694_ _694__bF$buf2 BUFX4
XBUFX4_249 vdd gnd _694_ _694__bF$buf1 BUFX4
XBUFX4_250 vdd gnd _694_ _694__bF$buf0 BUFX4
XBUFX4_251 vdd gnd _788_ _788__bF$buf4 BUFX4
XBUFX4_252 vdd gnd _788_ _788__bF$buf3 BUFX4
XBUFX4_253 vdd gnd _788_ _788__bF$buf2 BUFX4
XBUFX4_254 vdd gnd _788_ _788__bF$buf1 BUFX4
XBUFX4_255 vdd gnd _788_ _788__bF$buf0 BUFX4
XBUFX4_256 vdd gnd _1072_ _1072__bF$buf4 BUFX4
XBUFX4_257 vdd gnd _1072_ _1072__bF$buf3 BUFX4
XBUFX4_258 vdd gnd _1072_ _1072__bF$buf2 BUFX4
XBUFX4_259 vdd gnd _1072_ _1072__bF$buf1 BUFX4
XBUFX4_260 vdd gnd _1072_ _1072__bF$buf0 BUFX4
XBUFX4_261 vdd gnd _688_ _688__bF$buf7 BUFX4
XBUFX4_262 vdd gnd _688_ _688__bF$buf6 BUFX4
XBUFX4_263 vdd gnd _688_ _688__bF$buf5 BUFX4
XBUFX4_264 vdd gnd _688_ _688__bF$buf4 BUFX4
XBUFX4_265 vdd gnd _688_ _688__bF$buf3 BUFX4
XBUFX4_266 vdd gnd _688_ _688__bF$buf2 BUFX4
XBUFX4_267 vdd gnd _688_ _688__bF$buf1 BUFX4
XBUFX4_268 vdd gnd _688_ _688__bF$buf0 BUFX4
XBUFX4_269 vdd gnd lsb lsb_bF$buf3 BUFX4
XBUFX4_270 vdd gnd lsb lsb_bF$buf2 BUFX4
XBUFX4_271 vdd gnd lsb lsb_bF$buf1 BUFX4
XBUFX4_272 vdd gnd lsb lsb_bF$buf0 BUFX4
XBUFX4_273 vdd gnd _685_ _685__bF$buf4 BUFX4
XBUFX4_274 vdd gnd _685_ _685__bF$buf3 BUFX4
XBUFX4_275 vdd gnd _685_ _685__bF$buf2 BUFX4
XBUFX4_276 vdd gnd _685_ _685__bF$buf1 BUFX4
XBUFX4_277 vdd gnd _685_ _685__bF$buf0 BUFX4
XINVX1_1 ss[24] _6_ vdd gnd INVX1
XINVX2_1 vdd gnd _7_ wb_adr_i[2] INVX2
XNAND3X1_1 wb_adr_i[3] vdd gnd wb_adr_i[4] _7_ _8_ NAND3X1
XINVX8_1 vdd gnd _8__bF$buf3 _9_ INVX8
XNAND3X1_2 wb_stb_i vdd gnd wb_we_i wb_cyc_i _10_ NAND3X1
XNOR2X1_1 vdd _10_ gnd _11_ clgen.enable_bF$buf9 NOR2X1
XAND2X2_1 vdd gnd _9__bF$buf6 _11__bF$buf7 _12_ AND2X2
XNAND2X1_1 vdd _13_ gnd wb_dat_i[24] wb_sel_i[3_bF$buf6] NAND2X1
XOAI21X1_1 gnd vdd _6_ wb_sel_i[3_bF$buf5] _14_ _13_ OAI21X1
XNAND3X1_3 _14_ vdd gnd _11__bF$buf6 _9__bF$buf5 _15_ NAND3X1
XOAI21X1_2 gnd vdd _12__bF$buf4 _6_ _2_[24] _15_ OAI21X1
XINVX1_2 ss[25] _16_ vdd gnd INVX1
XNAND2X1_2 vdd _17_ gnd wb_sel_i[3_bF$buf4] wb_dat_i[25] NAND2X1
XOAI21X1_3 gnd vdd _16_ wb_sel_i[3_bF$buf3] _18_ _17_ OAI21X1
XNAND3X1_4 _18_ vdd gnd _11__bF$buf5 _9__bF$buf4 _19_ NAND3X1
XOAI21X1_4 gnd vdd _12__bF$buf3 _16_ _2_[25] _19_ OAI21X1
XINVX1_3 ss[26] _20_ vdd gnd INVX1
XNAND2X1_3 vdd _21_ gnd wb_sel_i[3_bF$buf2] wb_dat_i[26] NAND2X1
XOAI21X1_5 gnd vdd _20_ wb_sel_i[3_bF$buf1] _22_ _21_ OAI21X1
XNAND3X1_5 _22_ vdd gnd _11__bF$buf4 _9__bF$buf3 _23_ NAND3X1
XOAI21X1_6 gnd vdd _12__bF$buf2 _20_ _2_[26] _23_ OAI21X1
XINVX1_4 ss[27] _24_ vdd gnd INVX1
XNAND2X1_4 vdd _25_ gnd wb_sel_i[3_bF$buf0] wb_dat_i[27] NAND2X1
XOAI21X1_7 gnd vdd _24_ wb_sel_i[3_bF$buf6] _26_ _25_ OAI21X1
XNAND3X1_6 _26_ vdd gnd _11__bF$buf3 _9__bF$buf2 _27_ NAND3X1
XOAI21X1_8 gnd vdd _12__bF$buf1 _24_ _2_[27] _27_ OAI21X1
XINVX1_5 ss[28] _28_ vdd gnd INVX1
XNAND2X1_5 vdd _29_ gnd wb_sel_i[3_bF$buf5] wb_dat_i[28] NAND2X1
XOAI21X1_9 gnd vdd _28_ wb_sel_i[3_bF$buf4] _30_ _29_ OAI21X1
XNAND3X1_7 _30_ vdd gnd _11__bF$buf2 _9__bF$buf1 _31_ NAND3X1
XOAI21X1_10 gnd vdd _12__bF$buf0 _28_ _2_[28] _31_ OAI21X1
XINVX1_6 ss[29] _32_ vdd gnd INVX1
XNAND2X1_6 vdd _33_ gnd wb_sel_i[3_bF$buf3] wb_dat_i[29] NAND2X1
XOAI21X1_11 gnd vdd _32_ wb_sel_i[3_bF$buf2] _34_ _33_ OAI21X1
XNAND3X1_8 _34_ vdd gnd _11__bF$buf1 _9__bF$buf0 _35_ NAND3X1
XOAI21X1_12 gnd vdd _12__bF$buf4 _32_ _2_[29] _35_ OAI21X1
XINVX1_7 ss[30] _36_ vdd gnd INVX1
XNAND2X1_7 vdd _37_ gnd wb_sel_i[3_bF$buf1] wb_dat_i[30] NAND2X1
XOAI21X1_13 gnd vdd _36_ wb_sel_i[3_bF$buf0] _38_ _37_ OAI21X1
XNAND3X1_9 _38_ vdd gnd _11__bF$buf0 _9__bF$buf6 _39_ NAND3X1
XOAI21X1_14 gnd vdd _12__bF$buf3 _36_ _2_[30] _39_ OAI21X1
XINVX1_8 ss[31] _40_ vdd gnd INVX1
XNAND2X1_8 vdd _41_ gnd wb_sel_i[3_bF$buf6] wb_dat_i[31] NAND2X1
XOAI21X1_15 gnd vdd _40_ wb_sel_i[3_bF$buf5] _42_ _41_ OAI21X1
XNAND3X1_10 _42_ vdd gnd _11__bF$buf7 _9__bF$buf5 _43_ NAND3X1
XOAI21X1_16 gnd vdd _12__bF$buf2 _40_ _2_[31] _43_ OAI21X1
XINVX1_9 ss[16] _44_ vdd gnd INVX1
XNAND2X1_9 vdd _45_ gnd wb_dat_i[16] wb_sel_i[2_bF$buf6] NAND2X1
XOAI21X1_17 gnd vdd _44_ wb_sel_i[2_bF$buf5] _46_ _45_ OAI21X1
XNAND3X1_11 _46_ vdd gnd _11__bF$buf6 _9__bF$buf4 _47_ NAND3X1
XOAI21X1_18 gnd vdd _12__bF$buf1 _44_ _2_[16] _47_ OAI21X1
XINVX1_10 ss[17] _48_ vdd gnd INVX1
XNAND2X1_10 vdd _49_ gnd wb_sel_i[2_bF$buf4] wb_dat_i[17] NAND2X1
XOAI21X1_19 gnd vdd _48_ wb_sel_i[2_bF$buf3] _50_ _49_ OAI21X1
XNAND3X1_12 _50_ vdd gnd _11__bF$buf5 _9__bF$buf3 _51_ NAND3X1
XOAI21X1_20 gnd vdd _12__bF$buf0 _48_ _2_[17] _51_ OAI21X1
XINVX1_11 ss[18] _52_ vdd gnd INVX1
XNAND2X1_11 vdd _53_ gnd wb_sel_i[2_bF$buf2] wb_dat_i[18] NAND2X1
XOAI21X1_21 gnd vdd _52_ wb_sel_i[2_bF$buf1] _54_ _53_ OAI21X1
XNAND3X1_13 _54_ vdd gnd _11__bF$buf4 _9__bF$buf2 _55_ NAND3X1
XOAI21X1_22 gnd vdd _12__bF$buf4 _52_ _2_[18] _55_ OAI21X1
XINVX1_12 ss[19] _56_ vdd gnd INVX1
XNAND2X1_12 vdd _57_ gnd wb_sel_i[2_bF$buf0] wb_dat_i[19] NAND2X1
XOAI21X1_23 gnd vdd _56_ wb_sel_i[2_bF$buf6] _58_ _57_ OAI21X1
XNAND3X1_14 _58_ vdd gnd _11__bF$buf3 _9__bF$buf1 _59_ NAND3X1
XOAI21X1_24 gnd vdd _12__bF$buf3 _56_ _2_[19] _59_ OAI21X1
XINVX1_13 ss[20] _60_ vdd gnd INVX1
XNAND2X1_13 vdd _61_ gnd wb_sel_i[2_bF$buf5] wb_dat_i[20] NAND2X1
XOAI21X1_25 gnd vdd _60_ wb_sel_i[2_bF$buf4] _62_ _61_ OAI21X1
XNAND3X1_15 _62_ vdd gnd _11__bF$buf2 _9__bF$buf0 _63_ NAND3X1
XOAI21X1_26 gnd vdd _12__bF$buf2 _60_ _2_[20] _63_ OAI21X1
XINVX1_14 ss[21] _64_ vdd gnd INVX1
XNAND2X1_14 vdd _65_ gnd wb_sel_i[2_bF$buf3] wb_dat_i[21] NAND2X1
XOAI21X1_27 gnd vdd _64_ wb_sel_i[2_bF$buf2] _66_ _65_ OAI21X1
XNAND3X1_16 _66_ vdd gnd _11__bF$buf1 _9__bF$buf6 _67_ NAND3X1
XOAI21X1_28 gnd vdd _12__bF$buf1 _64_ _2_[21] _67_ OAI21X1
XINVX1_15 ss[22] _68_ vdd gnd INVX1
XNAND2X1_15 vdd _69_ gnd wb_sel_i[2_bF$buf1] wb_dat_i[22] NAND2X1
XOAI21X1_29 gnd vdd _68_ wb_sel_i[2_bF$buf0] _70_ _69_ OAI21X1
XNAND3X1_17 _70_ vdd gnd _11__bF$buf0 _9__bF$buf5 _71_ NAND3X1
XOAI21X1_30 gnd vdd _12__bF$buf0 _68_ _2_[22] _71_ OAI21X1
XINVX1_16 ss[23] _72_ vdd gnd INVX1
XNAND2X1_16 vdd _73_ gnd wb_sel_i[2_bF$buf6] wb_dat_i[23] NAND2X1
XOAI21X1_31 gnd vdd _72_ wb_sel_i[2_bF$buf5] _74_ _73_ OAI21X1
XNAND3X1_18 _74_ vdd gnd _11__bF$buf7 _9__bF$buf4 _75_ NAND3X1
XOAI21X1_32 gnd vdd _12__bF$buf4 _72_ _2_[23] _75_ OAI21X1
XINVX2_2 vdd gnd _76_ ss[8] INVX2
XNAND2X1_17 vdd _77_ gnd wb_dat_i[8] wb_sel_i[1_bF$buf7] NAND2X1
XOAI21X1_33 gnd vdd _76_ wb_sel_i[1_bF$buf6] _78_ _77_ OAI21X1
XNAND3X1_19 _78_ vdd gnd _11__bF$buf6 _9__bF$buf3 _79_ NAND3X1
XOAI21X1_34 gnd vdd _12__bF$buf3 _76_ _2_[8] _79_ OAI21X1
XINVX2_3 vdd gnd _80_ ss[9] INVX2
XNAND2X1_18 vdd _81_ gnd wb_sel_i[1_bF$buf5] wb_dat_i[9] NAND2X1
XOAI21X1_35 gnd vdd _80_ wb_sel_i[1_bF$buf4] _82_ _81_ OAI21X1
XNAND3X1_20 _82_ vdd gnd _11__bF$buf5 _9__bF$buf2 _83_ NAND3X1
XOAI21X1_36 gnd vdd _12__bF$buf2 _80_ _2_[9] _83_ OAI21X1
XINVX2_4 vdd gnd _84_ ss[10] INVX2
XNAND2X1_19 vdd _85_ gnd wb_sel_i[1_bF$buf3] wb_dat_i[10] NAND2X1
XOAI21X1_37 gnd vdd _84_ wb_sel_i[1_bF$buf2] _86_ _85_ OAI21X1
XNAND3X1_21 _86_ vdd gnd _11__bF$buf4 _9__bF$buf1 _87_ NAND3X1
XOAI21X1_38 gnd vdd _12__bF$buf1 _84_ _2_[10] _87_ OAI21X1
XINVX2_5 vdd gnd _88_ ss[11] INVX2
XNAND2X1_20 vdd _89_ gnd wb_sel_i[1_bF$buf1] wb_dat_i[11] NAND2X1
XOAI21X1_39 gnd vdd _88_ wb_sel_i[1_bF$buf0] _90_ _89_ OAI21X1
XNAND3X1_22 _90_ vdd gnd _11__bF$buf3 _9__bF$buf0 _91_ NAND3X1
XOAI21X1_40 gnd vdd _12__bF$buf0 _88_ _2_[11] _91_ OAI21X1
XINVX2_6 vdd gnd _92_ ss[12] INVX2
XNAND2X1_21 vdd _93_ gnd wb_sel_i[1_bF$buf7] wb_dat_i[12] NAND2X1
XOAI21X1_41 gnd vdd _92_ wb_sel_i[1_bF$buf6] _94_ _93_ OAI21X1
XNAND3X1_23 _94_ vdd gnd _11__bF$buf2 _9__bF$buf6 _95_ NAND3X1
XOAI21X1_42 gnd vdd _12__bF$buf4 _92_ _2_[12] _95_ OAI21X1
XINVX2_7 vdd gnd _96_ ss[13] INVX2
XNAND2X1_22 vdd _97_ gnd wb_sel_i[1_bF$buf5] wb_dat_i[13] NAND2X1
XOAI21X1_43 gnd vdd _96_ wb_sel_i[1_bF$buf4] _98_ _97_ OAI21X1
XNAND3X1_24 _98_ vdd gnd _11__bF$buf1 _9__bF$buf5 _99_ NAND3X1
XOAI21X1_44 gnd vdd _12__bF$buf3 _96_ _2_[13] _99_ OAI21X1
XINVX2_8 vdd gnd _100_ ss[14] INVX2
XNAND2X1_23 vdd _101_ gnd wb_sel_i[1_bF$buf3] wb_dat_i[14] NAND2X1
XOAI21X1_45 gnd vdd _100_ wb_sel_i[1_bF$buf2] _102_ _101_ OAI21X1
XNAND3X1_25 _102_ vdd gnd _11__bF$buf0 _9__bF$buf4 _103_ NAND3X1
XOAI21X1_46 gnd vdd _12__bF$buf2 _100_ _2_[14] _103_ OAI21X1
XINVX2_9 vdd gnd _104_ ss[15] INVX2
XNAND2X1_24 vdd _105_ gnd wb_sel_i[1_bF$buf1] wb_dat_i[15] NAND2X1
XOAI21X1_47 gnd vdd _104_ wb_sel_i[1_bF$buf0] _106_ _105_ OAI21X1
XNAND3X1_26 _106_ vdd gnd _11__bF$buf7 _9__bF$buf3 _107_ NAND3X1
XOAI21X1_48 gnd vdd _12__bF$buf1 _104_ _2_[15] _107_ OAI21X1
XINVX2_10 vdd gnd _108_ ss[0] INVX2
XNAND2X1_25 vdd _109_ gnd wb_dat_i[0] wb_sel_i[0_bF$buf7] NAND2X1
XOAI21X1_49 gnd vdd _108_ wb_sel_i[0_bF$buf6] _110_ _109_ OAI21X1
XNAND3X1_27 _110_ vdd gnd _11__bF$buf6 _9__bF$buf2 _111_ NAND3X1
XOAI21X1_50 gnd vdd _12__bF$buf0 _108_ _2_[0] _111_ OAI21X1
XINVX2_11 vdd gnd _112_ ss[1] INVX2
XNAND2X1_26 vdd _113_ gnd wb_sel_i[0_bF$buf5] wb_dat_i[1] NAND2X1
XOAI21X1_51 gnd vdd _112_ wb_sel_i[0_bF$buf4] _114_ _113_ OAI21X1
XNAND3X1_28 _114_ vdd gnd _11__bF$buf5 _9__bF$buf1 _115_ NAND3X1
XOAI21X1_52 gnd vdd _12__bF$buf4 _112_ _2_[1] _115_ OAI21X1
XINVX2_12 vdd gnd _116_ ss[2] INVX2
XNAND2X1_27 vdd _117_ gnd wb_sel_i[0_bF$buf3] wb_dat_i[2] NAND2X1
XOAI21X1_53 gnd vdd _116_ wb_sel_i[0_bF$buf2] _118_ _117_ OAI21X1
XNAND3X1_29 _118_ vdd gnd _11__bF$buf4 _9__bF$buf0 _119_ NAND3X1
XOAI21X1_54 gnd vdd _12__bF$buf3 _116_ _2_[2] _119_ OAI21X1
XINVX2_13 vdd gnd _120_ ss[3] INVX2
XNAND2X1_28 vdd _121_ gnd wb_sel_i[0_bF$buf1] wb_dat_i[3] NAND2X1
XOAI21X1_55 gnd vdd _120_ wb_sel_i[0_bF$buf0] _122_ _121_ OAI21X1
XNAND3X1_30 _122_ vdd gnd _11__bF$buf3 _9__bF$buf6 _123_ NAND3X1
XOAI21X1_56 gnd vdd _12__bF$buf2 _120_ _2_[3] _123_ OAI21X1
XINVX2_14 vdd gnd _124_ ss[4] INVX2
XNAND2X1_29 vdd _125_ gnd wb_sel_i[0_bF$buf7] wb_dat_i[4] NAND2X1
XOAI21X1_57 gnd vdd _124_ wb_sel_i[0_bF$buf6] _126_ _125_ OAI21X1
XNAND3X1_31 _126_ vdd gnd _11__bF$buf2 _9__bF$buf5 _127_ NAND3X1
XOAI21X1_58 gnd vdd _12__bF$buf1 _124_ _2_[4] _127_ OAI21X1
XINVX2_15 vdd gnd _128_ ss[5] INVX2
XNAND2X1_30 vdd _129_ gnd wb_sel_i[0_bF$buf5] wb_dat_i[5] NAND2X1
XOAI21X1_59 gnd vdd _128_ wb_sel_i[0_bF$buf4] _130_ _129_ OAI21X1
XNAND3X1_32 _130_ vdd gnd _11__bF$buf1 _9__bF$buf4 _131_ NAND3X1
XOAI21X1_60 gnd vdd _12__bF$buf0 _128_ _2_[5] _131_ OAI21X1
XINVX2_16 vdd gnd _132_ ss[6] INVX2
XNAND2X1_31 vdd _133_ gnd wb_sel_i[0_bF$buf3] wb_dat_i[6] NAND2X1
XOAI21X1_61 gnd vdd _132_ wb_sel_i[0_bF$buf2] _134_ _133_ OAI21X1
XNAND3X1_33 _134_ vdd gnd _11__bF$buf0 _9__bF$buf3 _135_ NAND3X1
XOAI21X1_62 gnd vdd _12__bF$buf4 _132_ _2_[6] _135_ OAI21X1
XINVX2_17 vdd gnd _136_ ss[7] INVX2
XNAND2X1_32 vdd _137_ gnd wb_sel_i[0_bF$buf1] wb_dat_i[7] NAND2X1
XOAI21X1_63 gnd vdd _136_ wb_sel_i[0_bF$buf0] _138_ _137_ OAI21X1
XNAND3X1_34 _138_ vdd gnd _11__bF$buf7 _9__bF$buf2 _139_ NAND3X1
XOAI21X1_64 gnd vdd _12__bF$buf3 _136_ _2_[7] _139_ OAI21X1
XINVX2_18 vdd gnd _140_ rx_negedge INVX2
XINVX2_19 vdd gnd _141_ wb_adr_i[3] INVX2
XNAND3X1_35 _7_ vdd gnd wb_adr_i[4] _141_ _142_ NAND3X1
XINVX8_2 vdd gnd _142_ _143_ INVX8
XAND2X2_2 vdd gnd _143_ _11__bF$buf6 _144_ AND2X2
XOAI21X1_65 gnd vdd _140_ wb_sel_i[1_bF$buf7] _145_ _81_ OAI21X1
XNAND3X1_36 _11__bF$buf5 vdd gnd _145_ _143_ _146_ NAND3X1
XOAI21X1_66 gnd vdd _144_ _140_ _0_[9] _146_ OAI21X1
XINVX2_20 vdd gnd _147_ shift.tx_negedge INVX2
XOAI21X1_67 gnd vdd _147_ wb_sel_i[1_bF$buf6] _148_ _85_ OAI21X1
XNAND3X1_37 _11__bF$buf4 vdd gnd _148_ _143_ _149_ NAND3X1
XOAI21X1_68 gnd vdd _144_ _147_ _0_[10] _149_ OAI21X1
XINVX2_21 vdd gnd _150_ lsb_bF$buf3 INVX2
XOAI21X1_69 gnd vdd _150_ wb_sel_i[1_bF$buf5] _151_ _89_ OAI21X1
XNAND3X1_38 _11__bF$buf3 vdd gnd _151_ _143_ _152_ NAND3X1
XOAI21X1_70 gnd vdd _144_ _150_ _0_[11] _152_ OAI21X1
XINVX2_22 vdd gnd _153_ ie INVX2
XOAI21X1_71 gnd vdd _153_ wb_sel_i[1_bF$buf4] _154_ _93_ OAI21X1
XNAND3X1_39 _11__bF$buf2 vdd gnd _154_ _143_ _155_ NAND3X1
XOAI21X1_72 gnd vdd _144_ _153_ _0_[12] _155_ OAI21X1
XINVX8_3 vdd gnd ass _156_ INVX8
XOAI21X1_73 gnd vdd _156__bF$buf4 wb_sel_i[1_bF$buf3] _157_ _97_ OAI21X1
XNAND3X1_40 _11__bF$buf1 vdd gnd _157_ _143_ _158_ NAND3X1
XOAI21X1_74 gnd vdd _144_ _156__bF$buf3 _0_[13] _158_ OAI21X1
XINVX1_17 clgen.go _159_ vdd gnd INVX1
XOAI21X1_75 gnd vdd _159_ wb_sel_i[1_bF$buf2] _160_ _77_ OAI21X1
XNAND3X1_41 _11__bF$buf0 vdd gnd _160_ _143_ _161_ NAND3X1